@<TRIPOS>MOLECULE
../data/bude_mols_rdkit_confs_charged/molecule_48.pdb
 36 38 0 0 0
SMALL
GASTEIGER

@<TRIPOS>ATOM
      1  O1         2.7320   -1.3780   -2.6310 O.co2   1  UNL1       -0.5446
      2  C1         3.2280   -1.9680   -1.6550 C.2     1  UNL1        0.0717
      3  O2         4.0420   -3.0540   -1.8690 O.co2   1  UNL1       -0.5446
      4  C2         2.9570   -1.5190   -0.3210 C.ar    1  UNL1       -0.0009
      5  C3         3.4910   -2.1480    0.7760 C.ar    1  UNL1       -0.0528
      6  C4         3.2450   -1.7360    2.0740 C.ar    1  UNL1       -0.0594
      7  C5         2.4120   -0.6280    2.2430 C.ar    1  UNL1       -0.0408
      8  C6         1.8660    0.0180    1.1800 C.ar    1  UNL1        0.0280
      9  N1         1.0120    1.1540    1.3670 N.pl3   1  UNL1       -0.3396
     10  C7         0.4000    1.8530    0.3170 C.3     1  UNL1        0.0384
     11  C8        -0.7990    1.4530   -0.3080 C.ar    1  UNL1        0.0186
     12  C9        -1.1370    2.2590   -1.4490 C.ar    1  UNL1        0.1221
     13  O3        -0.2460    3.2780   -1.7480 O.3     1  UNL1       -0.5064
     14  C10       -2.2510    2.0550   -2.2000 C.ar    1  UNL1       -0.0193
     15  C11       -3.1180    1.0490   -1.8910 C.ar    1  UNL1       -0.0506
     16  C12       -2.8370    0.2480   -0.8020 C.ar    1  UNL1       -0.0173
     17  C13       -3.7440   -0.7570   -0.4790 C.ar    1  UNL1       -0.0540
     18  C14       -3.4800   -1.5310    0.6210 C.ar    1  UNL1       -0.0612
     19  C15       -2.3680   -1.3400    1.3950 C.ar    1  UNL1       -0.0612
     20  C16       -1.4580   -0.3390    1.0790 C.ar    1  UNL1       -0.0536
     21  C17       -1.6800    0.4610   -0.0210 C.ar    1  UNL1       -0.0097
     22  C18        2.1300   -0.4150   -0.0880 C.ar    1  UNL1       -0.0320
     23 H           4.1035   -2.9649    0.6260 H       1  UNL1        0.0624
     24 H           3.6592   -2.2263    2.8821 H       1  UNL1        0.0618
     25 H           2.2065   -0.2923    3.1970 H       1  UNL1        0.0636
     26 H           0.8453    1.4616    2.2872 H       1  UNL1        0.1464
     27 H           1.1307    1.9010   -0.4631 H       1  UNL1        0.0512
     28 H           0.0771    2.7377    0.8250 H       1  UNL1        0.0512
     29 H           0.5170    3.4035   -1.2187 H       1  UNL1        0.2921
     30 H          -2.4421    2.6656   -3.0097 H       1  UNL1        0.0654
     31 H          -3.9652    0.8898   -2.4584 H       1  UNL1        0.0625
     32 H          -4.5891   -0.9146   -1.0500 H       1  UNL1        0.0624
     33 H          -4.1412   -2.2820    0.8735 H       1  UNL1        0.0618
     34 H          -2.2046   -1.9421    2.2171 H       1  UNL1        0.0618
     35 H          -0.6205   -0.1953    1.6646 H       1  UNL1        0.0624
     36 H           1.7113    0.0818   -0.8898 H       1  UNL1        0.0642
@<TRIPOS>UNITY_ATOM_ATTR
3 1
charge -1
@<TRIPOS>BOND
     1     1     2   ar
     2     2     3   ar
     3     2     4    1
     4     4     5   ar
     5     4    22   ar
     6     5     6   ar
     7     6     7   ar
     8     7     8   ar
     9     8     9    1
    10     8    22   ar
    11     9    10    1
    12    10    11    1
    13    11    12   ar
    14    11    21   ar
    15    12    13    1
    16    12    14   ar
    17    14    15   ar
    18    15    16   ar
    19    16    17   ar
    20    16    21   ar
    21    17    18   ar
    22    18    19   ar
    23    19    20   ar
    24    20    21   ar
    25     5    23    1
    26     6    24    1
    27     7    25    1
    28     9    26    1
    29    10    27    1
    30    10    28    1
    31    13    29    1
    32    14    30    1
    33    15    31    1
    34    17    32    1
    35    18    33    1
    36    19    34    1
    37    20    35    1
    38    22    36    1
@<TRIPOS>MOLECULE
../data/bude_mols_rdkit_confs_charged/molecule_48.pdb
 36 38 0 0 0
SMALL
GASTEIGER

@<TRIPOS>ATOM
      1  O1         4.4000    2.4250   -2.2420 O.co2   1  UNL1       -0.5446
      2  C1         5.0170    1.7340   -1.3660 C.2     1  UNL1        0.0717
      3  O2         6.3860    1.9160   -1.2320 O.co2   1  UNL1       -0.5446
      4  C2         4.3150    0.7760   -0.5250 C.ar    1  UNL1       -0.0009
      5  C3         4.9680    0.0100    0.4200 C.ar    1  UNL1       -0.0528
      6  C4         4.2550   -0.9220    1.1680 C.ar    1  UNL1       -0.0594
      7  C5         2.8990   -1.1260    1.0230 C.ar    1  UNL1       -0.0408
      8  C6         2.2680   -0.3500    0.0850 C.ar    1  UNL1        0.0280
      9  N1         0.8870   -0.4570   -0.1450 N.pl3   1  UNL1       -0.3396
     10  C7        -0.1830   -0.1450    0.8550 C.3     1  UNL1        0.0384
     11  C8        -1.4590   -0.5870    0.2030 C.ar    1  UNL1        0.0186
     12  C9        -1.5670   -1.9730    0.0900 C.ar    1  UNL1        0.1221
     13  O3        -0.5490   -2.8090    0.4700 O.3     1  UNL1       -0.5064
     14  C10       -2.7490   -2.4470   -0.4150 C.ar    1  UNL1       -0.0193
     15  C11       -3.7450   -1.5740   -0.7810 C.ar    1  UNL1       -0.0506
     16  C12       -3.6200   -0.2100   -0.6630 C.ar    1  UNL1       -0.0173
     17  C13       -4.6760    0.6030   -0.9870 C.ar    1  UNL1       -0.0540
     18  C14       -4.6060    1.9910   -0.7990 C.ar    1  UNL1       -0.0612
     19  C15       -3.4420    2.4650   -0.2910 C.ar    1  UNL1       -0.0612
     20  C16       -2.3680    1.6710    0.0300 C.ar    1  UNL1       -0.0536
     21  C17       -2.4210    0.2850   -0.1470 C.ar    1  UNL1       -0.0097
     22  C18        2.9670    0.5800   -0.6760 C.ar    1  UNL1       -0.0320
     23 H           5.9820    0.1283    0.5712 H       1  UNL1        0.0624
     24 H           4.7654   -1.4874    1.8643 H       1  UNL1        0.0618
     25 H           2.3885   -1.8226    1.5879 H       1  UNL1        0.0636
     26 H           0.5989   -0.7618   -1.0357 H       1  UNL1        0.1464
     27 H          -0.2100    0.9043    1.0629 H       1  UNL1        0.0512
     28 H          -0.0166   -0.6368    1.7906 H       1  UNL1        0.0512
     29 H           0.2472   -2.4524    0.8118 H       1  UNL1        0.2921
     30 H          -2.8919   -3.4636   -0.5209 H       1  UNL1        0.0654
     31 H          -4.6242   -1.9586   -1.1606 H       1  UNL1        0.0625
     32 H          -5.5365    0.1864   -1.3756 H       1  UNL1        0.0624
     33 H          -5.3941    2.6147   -1.0335 H       1  UNL1        0.0618
     34 H          -3.3578    3.4819   -0.1364 H       1  UNL1        0.0618
     35 H          -1.5102    2.1034    0.4070 H       1  UNL1        0.0624
     36 H           2.4553    1.1398   -1.3759 H       1  UNL1        0.0642
@<TRIPOS>UNITY_ATOM_ATTR
3 1
charge -1
@<TRIPOS>BOND
     1     1     2   ar
     2     2     3   ar
     3     2     4    1
     4     4     5   ar
     5     4    22   ar
     6     5     6   ar
     7     6     7   ar
     8     7     8   ar
     9     8     9    1
    10     8    22   ar
    11     9    10    1
    12    10    11    1
    13    11    12   ar
    14    11    21   ar
    15    12    13    1
    16    12    14   ar
    17    14    15   ar
    18    15    16   ar
    19    16    17   ar
    20    16    21   ar
    21    17    18   ar
    22    18    19   ar
    23    19    20   ar
    24    20    21   ar
    25     5    23    1
    26     6    24    1
    27     7    25    1
    28     9    26    1
    29    10    27    1
    30    10    28    1
    31    13    29    1
    32    14    30    1
    33    15    31    1
    34    17    32    1
    35    18    33    1
    36    19    34    1
    37    20    35    1
    38    22    36    1
@<TRIPOS>MOLECULE
../data/bude_mols_rdkit_confs_charged/molecule_48.pdb
 36 38 0 0 0
SMALL
GASTEIGER

@<TRIPOS>ATOM
      1  O1         5.1170   -1.8310   -0.9410 O.co2   1  UNL1       -0.5446
      2  C1         5.4600   -0.7040   -0.4730 C.2     1  UNL1        0.0717
      3  O2         6.7800   -0.3780   -0.2860 O.co2   1  UNL1       -0.5446
      4  C2         4.4070    0.2960   -0.1470 C.ar    1  UNL1       -0.0009
      5  C3         4.8480    1.4840    0.4380 C.ar    1  UNL1       -0.0528
      6  C4         3.9340    2.4110    0.7770 C.ar    1  UNL1       -0.0594
      7  C5         2.5810    2.2000    0.5350 C.ar    1  UNL1       -0.0408
      8  C6         2.0810    1.0630   -0.0430 C.ar    1  UNL1        0.0280
      9  N1         0.6840    0.8770   -0.3270 N.pl3   1  UNL1       -0.3396
     10  C7         0.0550   -0.2860    0.1670 C.3     1  UNL1        0.0384
     11  C8        -1.2350   -0.7860   -0.1150 C.ar    1  UNL1        0.0186
     12  C9        -1.2780   -2.1170   -0.5950 C.ar    1  UNL1        0.1221
     13  O3         0.0510   -2.6320   -0.7660 O.3     1  UNL1       -0.5064
     14  C10       -2.4070   -2.7950   -0.8630 C.ar    1  UNL1       -0.0193
     15  C11       -3.6270   -2.1480   -0.6580 C.ar    1  UNL1       -0.0506
     16  C12       -3.6450   -0.8230   -0.1790 C.ar    1  UNL1       -0.0173
     17  C13       -4.9040   -0.2650    0.0380 C.ar    1  UNL1       -0.0540
     18  C14       -4.9670    1.0320    0.5790 C.ar    1  UNL1       -0.0612
     19  C15       -3.7650    1.6840    0.8570 C.ar    1  UNL1       -0.0612
     20  C16       -2.5210    1.1360    0.6290 C.ar    1  UNL1       -0.0536
     21  C17       -2.4430   -0.1700    0.0870 C.ar    1  UNL1       -0.0097
     22  C18        3.0700    0.1310   -0.3610 C.ar    1  UNL1       -0.0320
     23 H           5.8529    1.6476    0.6067 H       1  UNL1        0.0624
     24 H           4.2408    3.2899    1.2223 H       1  UNL1        0.0618
     25 H           1.9163    2.9414    0.8060 H       1  UNL1        0.0636
     26 H           0.1807    1.5415   -0.8508 H       1  UNL1        0.1464
     27 H           0.0664   -0.1636    1.2299 H       1  UNL1        0.0512
     28 H           0.6210   -1.0091   -0.3821 H       1  UNL1        0.0512
     29 H           0.7913   -2.0970   -0.5568 H       1  UNL1        0.2921
     30 H          -2.3731   -3.7662   -1.2104 H       1  UNL1        0.0654
     31 H          -4.5129   -2.6387   -0.8567 H       1  UNL1        0.0625
     32 H          -5.7638   -0.7877   -0.1913 H       1  UNL1        0.0624
     33 H          -5.8743    1.4873    0.7646 H       1  UNL1        0.0618
     34 H          -3.8102    2.6340    1.2576 H       1  UNL1        0.0618
     35 H          -1.6637    1.6667    0.8488 H       1  UNL1        0.0624
     36 H           2.7649   -0.7551   -0.7932 H       1  UNL1        0.0642
@<TRIPOS>UNITY_ATOM_ATTR
3 1
charge -1
@<TRIPOS>BOND
     1     1     2   ar
     2     2     3   ar
     3     2     4    1
     4     4     5   ar
     5     4    22   ar
     6     5     6   ar
     7     6     7   ar
     8     7     8   ar
     9     8     9    1
    10     8    22   ar
    11     9    10    1
    12    10    11    1
    13    11    12   ar
    14    11    21   ar
    15    12    13    1
    16    12    14   ar
    17    14    15   ar
    18    15    16   ar
    19    16    17   ar
    20    16    21   ar
    21    17    18   ar
    22    18    19   ar
    23    19    20   ar
    24    20    21   ar
    25     5    23    1
    26     6    24    1
    27     7    25    1
    28     9    26    1
    29    10    27    1
    30    10    28    1
    31    13    29    1
    32    14    30    1
    33    15    31    1
    34    17    32    1
    35    18    33    1
    36    19    34    1
    37    20    35    1
    38    22    36    1
@<TRIPOS>MOLECULE
../data/bude_mols_rdkit_confs_charged/molecule_48.pdb
 36 38 0 0 0
SMALL
GASTEIGER

@<TRIPOS>ATOM
      1  O1         4.5570   -3.4560   -0.6320 O.co2   1  UNL1       -0.5446
      2  C1         5.2210   -2.3170   -0.8120 C.2     1  UNL1        0.0717
      3  O2         6.4980   -2.4580   -1.0480 O.co2   1  UNL1       -0.5446
      4  C2         4.3880   -1.1580   -0.6890 C.ar    1  UNL1       -0.0009
      5  C3         4.9680    0.1300   -0.8320 C.ar    1  UNL1       -0.0528
      6  C4         4.1300    1.2120   -0.6650 C.ar    1  UNL1       -0.0594
      7  C5         2.7940    1.1220   -0.3840 C.ar    1  UNL1       -0.0408
      8  C6         2.2300   -0.1240   -0.2530 C.ar    1  UNL1        0.0280
      9  N1         0.8170   -0.2780    0.0090 N.pl3   1  UNL1       -0.3396
     10  C7        -0.0500    0.8640   -0.3110 C.3     1  UNL1        0.0384
     11  C8        -1.3510    0.7160    0.4090 C.ar    1  UNL1        0.0186
     12  C9        -1.4710    1.5150    1.5750 C.ar    1  UNL1        0.1221
     13  O3        -0.3470    2.2410    1.9990 O.3     1  UNL1       -0.5064
     14  C10       -2.6360    1.5690    2.2580 C.ar    1  UNL1       -0.0193
     15  C11       -3.7070    0.8380    1.8020 C.ar    1  UNL1       -0.0506
     16  C12       -3.6410    0.0560    0.6850 C.ar    1  UNL1       -0.0173
     17  C13       -4.7420   -0.5900    0.1660 C.ar    1  UNL1       -0.0540
     18  C14       -4.6220   -1.2620   -1.0300 C.ar    1  UNL1       -0.0612
     19  C15       -3.4300   -1.3070   -1.7150 C.ar    1  UNL1       -0.0612
     20  C16       -2.3350   -0.6850   -1.2230 C.ar    1  UNL1       -0.0536
     21  C17       -2.4150    0.0070   -0.0170 C.ar    1  UNL1       -0.0097
     22  C18        3.0510   -1.2660   -0.4100 C.ar    1  UNL1       -0.0320
     23 H           5.9694    0.2506   -1.0506 H       1  UNL1        0.0624
     24 H           4.5387    2.1550   -0.7584 H       1  UNL1        0.0618
     25 H           2.2212    1.9732   -0.2726 H       1  UNL1        0.0636
     26 H           0.4517   -1.1112    0.3852 H       1  UNL1        0.1464
     27 H          -0.2270    0.8934   -1.3658 H       1  UNL1        0.0512
     28 H           0.4268    1.7717   -0.0050 H       1  UNL1        0.0512
     29 H           0.4529    2.1920    1.5134 H       1  UNL1        0.2921
     30 H          -2.7200    2.1491    3.1074 H       1  UNL1        0.0654
     31 H          -4.5958    0.8821    2.3245 H       1  UNL1        0.0625
     32 H          -5.6442   -0.5705    0.6668 H       1  UNL1        0.0624
     33 H          -5.4464   -1.7435   -1.4219 H       1  UNL1        0.0618
     34 H          -3.3712   -1.8184   -2.6095 H       1  UNL1        0.0618
     35 H          -1.4424   -0.7229   -1.7396 H       1  UNL1        0.0624
     36 H           2.6319   -2.2040   -0.3118 H       1  UNL1        0.0642
@<TRIPOS>UNITY_ATOM_ATTR
3 1
charge -1
@<TRIPOS>BOND
     1     1     2   ar
     2     2     3   ar
     3     2     4    1
     4     4     5   ar
     5     4    22   ar
     6     5     6   ar
     7     6     7   ar
     8     7     8   ar
     9     8     9    1
    10     8    22   ar
    11     9    10    1
    12    10    11    1
    13    11    12   ar
    14    11    21   ar
    15    12    13    1
    16    12    14   ar
    17    14    15   ar
    18    15    16   ar
    19    16    17   ar
    20    16    21   ar
    21    17    18   ar
    22    18    19   ar
    23    19    20   ar
    24    20    21   ar
    25     5    23    1
    26     6    24    1
    27     7    25    1
    28     9    26    1
    29    10    27    1
    30    10    28    1
    31    13    29    1
    32    14    30    1
    33    15    31    1
    34    17    32    1
    35    18    33    1
    36    19    34    1
    37    20    35    1
    38    22    36    1
@<TRIPOS>MOLECULE
../data/bude_mols_rdkit_confs_charged/molecule_48.pdb
 36 38 0 0 0
SMALL
GASTEIGER

@<TRIPOS>ATOM
      1  O1         5.0130   -2.5750   -1.1590 O.co2   1  UNL1       -0.5446
      2  C1         4.8750   -2.1460    0.0150 C.2     1  UNL1        0.0717
      3  O2         5.7530   -2.6240    0.9740 O.co2   1  UNL1       -0.5446
      4  C2         3.8440   -1.1970    0.3490 C.ar    1  UNL1       -0.0009
      5  C3         3.6830   -0.7260    1.6310 C.ar    1  UNL1       -0.0528
      6  C4         2.6890    0.1710    1.8860 C.ar    1  UNL1       -0.0594
      7  C5         1.8230    0.6290    0.8820 C.ar    1  UNL1       -0.0408
      8  C6         1.9850    0.1570   -0.3960 C.ar    1  UNL1        0.0280
      9  N1         1.1050    0.6110   -1.4640 N.pl3   1  UNL1       -0.3396
     10  C7         0.0920    1.5140   -1.2220 C.3     1  UNL1        0.0384
     11  C8        -1.2320    1.2220   -0.7050 C.ar    1  UNL1        0.0186
     12  C9        -2.0120    2.3860   -0.4430 C.ar    1  UNL1        0.1221
     13  O3        -1.4200    3.6140   -0.7010 O.3     1  UNL1       -0.5064
     14  C10       -3.2760    2.2480    0.0390 C.ar    1  UNL1       -0.0193
     15  C11       -3.8650    1.0370    0.2950 C.ar    1  UNL1       -0.0506
     16  C12       -3.1300   -0.0990    0.0470 C.ar    1  UNL1       -0.0173
     17  C13       -3.7400   -1.3090    0.2820 C.ar    1  UNL1       -0.0540
     18  C14       -3.0320   -2.4570    0.0110 C.ar    1  UNL1       -0.0612
     19  C15       -1.7600   -2.3650   -0.4770 C.ar    1  UNL1       -0.0612
     20  C16       -1.1320   -1.1590   -0.7180 C.ar    1  UNL1       -0.0536
     21  C17       -1.8220    0.0060   -0.4510 C.ar    1  UNL1       -0.0097
     22  C18        2.9860   -0.7460   -0.6570 C.ar    1  UNL1       -0.0320
     23 H           4.3057   -1.0470    2.3888 H       1  UNL1        0.0624
     24 H           2.5697    0.5244    2.8482 H       1  UNL1        0.0618
     25 H           1.0777    1.3085    1.1007 H       1  UNL1        0.0636
     26 H           1.2362    0.2662   -2.3768 H       1  UNL1        0.1464
     27 H          -0.0790    1.9952   -2.1623 H       1  UNL1        0.0512
     28 H           0.5044    2.0109   -0.3688 H       1  UNL1        0.0512
     29 H          -0.5447    3.6516   -1.0332 H       1  UNL1        0.2921
     30 H          -3.8230    3.1037    0.2225 H       1  UNL1        0.0654
     31 H          -4.8280    0.9794    0.6616 H       1  UNL1        0.0625
     32 H          -4.7025   -1.3545    0.6515 H       1  UNL1        0.0624
     33 H          -3.4595   -3.3818    0.1755 H       1  UNL1        0.0618
     34 H          -1.2443   -3.2368   -0.6748 H       1  UNL1        0.0618
     35 H          -0.1694   -1.1296   -1.0890 H       1  UNL1        0.0624
     36 H           3.1073   -1.0998   -1.6188 H       1  UNL1        0.0642
@<TRIPOS>UNITY_ATOM_ATTR
3 1
charge -1
@<TRIPOS>BOND
     1     1     2   ar
     2     2     3   ar
     3     2     4    1
     4     4     5   ar
     5     4    22   ar
     6     5     6   ar
     7     6     7   ar
     8     7     8   ar
     9     8     9    1
    10     8    22   ar
    11     9    10    1
    12    10    11    1
    13    11    12   ar
    14    11    21   ar
    15    12    13    1
    16    12    14   ar
    17    14    15   ar
    18    15    16   ar
    19    16    17   ar
    20    16    21   ar
    21    17    18   ar
    22    18    19   ar
    23    19    20   ar
    24    20    21   ar
    25     5    23    1
    26     6    24    1
    27     7    25    1
    28     9    26    1
    29    10    27    1
    30    10    28    1
    31    13    29    1
    32    14    30    1
    33    15    31    1
    34    17    32    1
    35    18    33    1
    36    19    34    1
    37    20    35    1
    38    22    36    1
@<TRIPOS>MOLECULE
../data/bude_mols_rdkit_confs_charged/molecule_48.pdb
 36 38 0 0 0
SMALL
GASTEIGER

@<TRIPOS>ATOM
      1  O1         6.0800    1.5080   -0.8520 O.co2   1  UNL1       -0.5446
      2  C1         4.8530    1.4890   -0.6400 C.2     1  UNL1        0.0717
      3  O2         4.1170    2.6590   -0.7680 O.co2   1  UNL1       -0.5446
      4  C2         4.2280    0.2170   -0.2640 C.ar    1  UNL1       -0.0009
      5  C3         4.9610   -0.9210   -0.1010 C.ar    1  UNL1       -0.0528
      6  C4         4.3580   -2.1070    0.2900 C.ar    1  UNL1       -0.0594
      7  C5         2.9890   -2.1430    0.5120 C.ar    1  UNL1       -0.0408
      8  C6         2.2230   -1.0200    0.3520 C.ar    1  UNL1        0.0280
      9  N1         0.8280   -0.9250    0.5730 N.pl3   1  UNL1       -0.3396
     10  C7        -0.0060   -0.3750   -0.5270 C.3     1  UNL1        0.0384
     11  C8        -1.2490    0.2380   -0.1290 C.ar    1  UNL1        0.0186
     12  C9        -1.1330    1.3340    0.7390 C.ar    1  UNL1        0.1221
     13  O3         0.1350    1.6250    1.2910 O.3     1  UNL1       -0.5064
     14  C10       -2.2050    2.1080    1.0590 C.ar    1  UNL1       -0.0193
     15  C11       -3.4500    1.8120    0.5130 C.ar    1  UNL1       -0.0506
     16  C12       -3.6040    0.7340   -0.3500 C.ar    1  UNL1       -0.0173
     17  C13       -4.8440    0.4640   -0.9220 C.ar    1  UNL1       -0.0540
     18  C14       -5.0510   -0.5720   -1.8060 C.ar    1  UNL1       -0.0612
     19  C15       -3.9160   -1.3560   -2.1040 C.ar    1  UNL1       -0.0612
     20  C16       -2.7050   -1.0750   -1.5350 C.ar    1  UNL1       -0.0536
     21  C17       -2.4900   -0.0500   -0.6610 C.ar    1  UNL1       -0.0097
     22  C18        2.8740    0.1490   -0.0340 C.ar    1  UNL1       -0.0320
     23 H           5.9787   -0.8995   -0.2710 H       1  UNL1        0.0624
     24 H           4.9256   -2.9597    0.4154 H       1  UNL1        0.0618
     25 H           2.5427   -3.0274    0.8013 H       1  UNL1        0.0636
     26 H           0.4253   -1.2127    1.4240 H       1  UNL1        0.1464
     27 H          -0.2358   -1.1772   -1.1967 H       1  UNL1        0.0512
     28 H           0.5752    0.4082   -0.9671 H       1  UNL1        0.0512
     29 H           0.8746    1.0931    1.0719 H       1  UNL1        0.2921
     30 H          -2.0956    2.9082    1.7015 H       1  UNL1        0.0654
     31 H          -4.2656    2.3978    0.7509 H       1  UNL1        0.0625
     32 H          -5.6438    1.0667   -0.6727 H       1  UNL1        0.0624
     33 H          -5.9756   -0.7624   -2.2231 H       1  UNL1        0.0618
     34 H          -4.0010   -2.1496   -2.7582 H       1  UNL1        0.0618
     35 H          -1.9033   -1.6760   -1.7822 H       1  UNL1        0.0624
     36 H           2.3125    1.0066   -0.1533 H       1  UNL1        0.0642
@<TRIPOS>UNITY_ATOM_ATTR
3 1
charge -1
@<TRIPOS>BOND
     1     1     2   ar
     2     2     3   ar
     3     2     4    1
     4     4     5   ar
     5     4    22   ar
     6     5     6   ar
     7     6     7   ar
     8     7     8   ar
     9     8     9    1
    10     8    22   ar
    11     9    10    1
    12    10    11    1
    13    11    12   ar
    14    11    21   ar
    15    12    13    1
    16    12    14   ar
    17    14    15   ar
    18    15    16   ar
    19    16    17   ar
    20    16    21   ar
    21    17    18   ar
    22    18    19   ar
    23    19    20   ar
    24    20    21   ar
    25     5    23    1
    26     6    24    1
    27     7    25    1
    28     9    26    1
    29    10    27    1
    30    10    28    1
    31    13    29    1
    32    14    30    1
    33    15    31    1
    34    17    32    1
    35    18    33    1
    36    19    34    1
    37    20    35    1
    38    22    36    1
@<TRIPOS>MOLECULE
../data/bude_mols_rdkit_confs_charged/molecule_48.pdb
 36 38 0 0 0
SMALL
GASTEIGER

@<TRIPOS>ATOM
      1  O1         6.6740    1.4840    1.0200 O.co2   1  UNL1       -0.5446
      2  C1         5.4510    1.7370    0.9930 C.2     1  UNL1        0.0717
      3  O2         4.9930    2.9120    1.5550 O.co2   1  UNL1       -0.5446
      4  C2         4.4890    0.8360    0.3870 C.ar    1  UNL1       -0.0009
      5  C3         4.9420   -0.3420   -0.1760 C.ar    1  UNL1       -0.0528
      6  C4         4.0610   -1.2220   -0.7560 C.ar    1  UNL1       -0.0594
      7  C5         2.6920   -0.9070   -0.7690 C.ar    1  UNL1       -0.0408
      8  C6         2.2350    0.2540   -0.2150 C.ar    1  UNL1        0.0280
      9  N1         0.7980    0.5510   -0.2190 N.pl3   1  UNL1       -0.3396
     10  C7        -0.0450   -0.4950   -0.5180 C.3     1  UNL1        0.0384
     11  C8        -1.4550   -0.6560   -0.3620 C.ar    1  UNL1        0.0186
     12  C9        -2.0040   -1.8740   -0.9110 C.ar    1  UNL1        0.1221
     13  O3        -1.0950   -2.7180   -1.5210 O.3     1  UNL1       -0.5064
     14  C10       -3.3160   -2.1630   -0.8300 C.ar    1  UNL1       -0.0193
     15  C11       -4.1840   -1.3060   -0.2190 C.ar    1  UNL1       -0.0506
     16  C12       -3.6960   -0.1360    0.3180 C.ar    1  UNL1       -0.0173
     17  C13       -4.5930    0.7230    0.9620 C.ar    1  UNL1       -0.0540
     18  C14       -4.1770    1.8950    1.5420 C.ar    1  UNL1       -0.0612
     19  C15       -2.8460    2.2400    1.4930 C.ar    1  UNL1       -0.0612
     20  C16       -1.9760    1.3680    0.8460 C.ar    1  UNL1       -0.0536
     21  C17       -2.3370    0.1860    0.2470 C.ar    1  UNL1       -0.0097
     22  C18        3.1350    1.1150    0.3570 C.ar    1  UNL1       -0.0320
     23 H           5.9501   -0.5623   -0.1606 H       1  UNL1        0.0624
     24 H           4.3998   -2.1016   -1.1760 H       1  UNL1        0.0618
     25 H           2.0229   -1.5619   -1.2031 H       1  UNL1        0.0636
     26 H           0.4548    1.4516   -0.0182 H       1  UNL1        0.1464
     27 H           0.3650   -1.3149    0.0339 H       1  UNL1        0.0512
     28 H          -0.0551   -0.3453   -1.5774 H       1  UNL1        0.0512
     29 H          -0.1888   -2.4826   -1.5580 H       1  UNL1        0.2921
     30 H          -3.6698   -3.0438   -1.2351 H       1  UNL1        0.0654
     31 H          -5.1895   -1.5310   -0.1603 H       1  UNL1        0.0625
     32 H          -5.5924    0.4689    1.0019 H       1  UNL1        0.0624
     33 H          -4.8573    2.5129    2.0114 H       1  UNL1        0.0618
     34 H          -2.5049    3.1149    1.9211 H       1  UNL1        0.0618
     35 H          -0.9785    1.6307    0.8136 H       1  UNL1        0.0624
     36 H           2.7934    1.9940    0.7760 H       1  UNL1        0.0642
@<TRIPOS>UNITY_ATOM_ATTR
3 1
charge -1
@<TRIPOS>BOND
     1     1     2   ar
     2     2     3   ar
     3     2     4    1
     4     4     5   ar
     5     4    22   ar
     6     5     6   ar
     7     6     7   ar
     8     7     8   ar
     9     8     9    1
    10     8    22   ar
    11     9    10    1
    12    10    11    1
    13    11    12   ar
    14    11    21   ar
    15    12    13    1
    16    12    14   ar
    17    14    15   ar
    18    15    16   ar
    19    16    17   ar
    20    16    21   ar
    21    17    18   ar
    22    18    19   ar
    23    19    20   ar
    24    20    21   ar
    25     5    23    1
    26     6    24    1
    27     7    25    1
    28     9    26    1
    29    10    27    1
    30    10    28    1
    31    13    29    1
    32    14    30    1
    33    15    31    1
    34    17    32    1
    35    18    33    1
    36    19    34    1
    37    20    35    1
    38    22    36    1
@<TRIPOS>MOLECULE
../data/bude_mols_rdkit_confs_charged/molecule_48.pdb
 36 38 0 0 0
SMALL
GASTEIGER

@<TRIPOS>ATOM
      1  O1         5.3890    1.7320   -0.9060 O.co2   1  UNL1       -0.5446
      2  C1         5.5910    0.6160   -0.1880 C.2     1  UNL1        0.0717
      3  O2         6.8630    0.4220    0.1310 O.co2   1  UNL1       -0.5446
      4  C2         4.4020   -0.1280    0.0840 C.ar    1  UNL1       -0.0009
      5  C3         4.4790   -1.3370    0.7770 C.ar    1  UNL1       -0.0528
      6  C4         3.3590   -2.0730    1.1140 C.ar    1  UNL1       -0.0594
      7  C5         2.1270   -1.6120    0.7590 C.ar    1  UNL1       -0.0408
      8  C6         1.9810   -0.4130    0.0520 C.ar    1  UNL1        0.0280
      9  N1         0.6910    0.0320   -0.2020 N.pl3   1  UNL1       -0.3396
     10  C7        -0.0980   -0.1040   -1.4090 C.3     1  UNL1        0.0384
     11  C8        -1.4280    0.4970   -1.0180 C.ar    1  UNL1        0.0186
     12  C9        -1.8160    1.6420   -1.6820 C.ar    1  UNL1        0.1221
     13  O3        -1.0690    2.1410   -2.7160 O.3     1  UNL1       -0.5064
     14  C10       -2.9770    2.2800   -1.2830 C.ar    1  UNL1       -0.0193
     15  C11       -3.7040    1.7690   -0.2620 C.ar    1  UNL1       -0.0506
     16  C12       -3.3590    0.6360    0.3930 C.ar    1  UNL1       -0.0173
     17  C13       -4.2050    0.1260    1.3590 C.ar    1  UNL1       -0.0540
     18  C14       -3.8300   -1.0820    1.9020 C.ar    1  UNL1       -0.0612
     19  C15       -2.7160   -1.7520    1.5420 C.ar    1  UNL1       -0.0612
     20  C16       -1.8650   -1.2240    0.5810 C.ar    1  UNL1       -0.0536
     21  C17       -2.1710   -0.0120   -0.0120 C.ar    1  UNL1       -0.0097
     22  C18        3.1410    0.3220   -0.2760 C.ar    1  UNL1       -0.0320
     23 H           5.4081   -1.6951    1.0482 H       1  UNL1        0.0624
     24 H           3.4547   -2.9622    1.6290 H       1  UNL1        0.0618
     25 H           1.2881   -2.1556    1.0155 H       1  UNL1        0.0636
     26 H           0.2516    0.5055    0.5409 H       1  UNL1        0.1464
     27 H          -0.2069   -1.1326   -1.6829 H       1  UNL1        0.0512
     28 H           0.3459    0.3728   -2.2578 H       1  UNL1        0.0512
     29 H          -0.2838    1.7034   -2.9806 H       1  UNL1        0.2921
     30 H          -3.2869    3.1405   -1.7610 H       1  UNL1        0.0654
     31 H          -4.5601    2.2658    0.0302 H       1  UNL1        0.0625
     32 H          -5.0624    0.6187    1.6543 H       1  UNL1        0.0624
     33 H          -4.4358   -1.4989    2.6260 H       1  UNL1        0.0618
     34 H          -2.4960   -2.6592    1.9821 H       1  UNL1        0.0618
     35 H          -1.0088   -1.7326    0.3103 H       1  UNL1        0.0624
     36 H           3.0486    1.2103   -0.7931 H       1  UNL1        0.0642
@<TRIPOS>UNITY_ATOM_ATTR
3 1
charge -1
@<TRIPOS>BOND
     1     1     2   ar
     2     2     3   ar
     3     2     4    1
     4     4     5   ar
     5     4    22   ar
     6     5     6   ar
     7     6     7   ar
     8     7     8   ar
     9     8     9    1
    10     8    22   ar
    11     9    10    1
    12    10    11    1
    13    11    12   ar
    14    11    21   ar
    15    12    13    1
    16    12    14   ar
    17    14    15   ar
    18    15    16   ar
    19    16    17   ar
    20    16    21   ar
    21    17    18   ar
    22    18    19   ar
    23    19    20   ar
    24    20    21   ar
    25     5    23    1
    26     6    24    1
    27     7    25    1
    28     9    26    1
    29    10    27    1
    30    10    28    1
    31    13    29    1
    32    14    30    1
    33    15    31    1
    34    17    32    1
    35    18    33    1
    36    19    34    1
    37    20    35    1
    38    22    36    1
@<TRIPOS>MOLECULE
../data/bude_mols_rdkit_confs_charged/molecule_48.pdb
 36 38 0 0 0
SMALL
GASTEIGER

@<TRIPOS>ATOM
      1  O1         6.2940   -1.4550    0.0370 O.co2   1  UNL1       -0.5446
      2  C1         5.0820   -1.4340   -0.1010 C.2     1  UNL1        0.0717
      3  O2         4.3720   -2.4810   -0.6310 O.co2   1  UNL1       -0.5446
      4  C2         4.2950   -0.2430    0.3100 C.ar    1  UNL1       -0.0009
      5  C3         4.8920    0.8240    0.9920 C.ar    1  UNL1       -0.0528
      6  C4         4.0420    1.8830    1.3380 C.ar    1  UNL1       -0.0594
      7  C5         2.7120    1.8800    1.0280 C.ar    1  UNL1       -0.0408
      8  C6         2.1300    0.8450    0.3660 C.ar    1  UNL1        0.0280
      9  N1         0.7780    0.8740   -0.0130 N.pl3   1  UNL1       -0.3396
     10  C7         0.1280   -0.3640   -0.5100 C.3     1  UNL1        0.0384
     11  C8        -1.2750   -0.1600   -0.8110 C.ar    1  UNL1        0.0186
     12  C9        -1.6090   -0.1120   -2.1380 C.ar    1  UNL1        0.1221
     13  O3        -0.5740   -0.0490   -3.0820 O.3     1  UNL1       -0.5064
     14  C10       -2.9470   -0.1170   -2.5960 C.ar    1  UNL1       -0.0193
     15  C11       -3.9170   -0.1680   -1.6560 C.ar    1  UNL1       -0.0506
     16  C12       -3.6230   -0.2160   -0.3100 C.ar    1  UNL1       -0.0173
     17  C13       -4.6560   -0.3920    0.6050 C.ar    1  UNL1       -0.0540
     18  C14       -4.3570   -0.5620    1.9140 C.ar    1  UNL1       -0.0612
     19  C15       -3.0310   -0.5670    2.3420 C.ar    1  UNL1       -0.0612
     20  C16       -2.0350   -0.3890    1.4000 C.ar    1  UNL1       -0.0536
     21  C17       -2.2980   -0.2120    0.0760 C.ar    1  UNL1       -0.0097
     22  C18        2.9700   -0.2020    0.0270 C.ar    1  UNL1       -0.0320
     23 H           5.8972    0.8302    1.2258 H       1  UNL1        0.0624
     24 H           4.4343    2.6924    1.8441 H       1  UNL1        0.0618
     25 H           2.1316    2.6873    1.3044 H       1  UNL1        0.0636
     26 H           0.2641    1.7113    0.0507 H       1  UNL1        0.1464
     27 H           0.2133   -1.1231    0.2392 H       1  UNL1        0.0512
     28 H           0.6203   -0.6543   -1.4146 H       1  UNL1        0.0512
     29 H           0.3191   -0.0447   -2.7985 H       1  UNL1        0.2921
     30 H          -3.1726   -0.0832   -3.6025 H       1  UNL1        0.0654
     31 H          -4.9050   -0.1711   -1.9542 H       1  UNL1        0.0625
     32 H          -5.6386   -0.3929    0.2894 H       1  UNL1        0.0624
     33 H          -5.1170   -0.6889    2.6005 H       1  UNL1        0.0618
     34 H          -2.7980   -0.7004    3.3385 H       1  UNL1        0.0618
     35 H          -1.0517   -0.3903    1.7133 H       1  UNL1        0.0624
     36 H           2.5599   -1.0051   -0.4748 H       1  UNL1        0.0642
@<TRIPOS>UNITY_ATOM_ATTR
3 1
charge -1
@<TRIPOS>BOND
     1     1     2   ar
     2     2     3   ar
     3     2     4    1
     4     4     5   ar
     5     4    22   ar
     6     5     6   ar
     7     6     7   ar
     8     7     8   ar
     9     8     9    1
    10     8    22   ar
    11     9    10    1
    12    10    11    1
    13    11    12   ar
    14    11    21   ar
    15    12    13    1
    16    12    14   ar
    17    14    15   ar
    18    15    16   ar
    19    16    17   ar
    20    16    21   ar
    21    17    18   ar
    22    18    19   ar
    23    19    20   ar
    24    20    21   ar
    25     5    23    1
    26     6    24    1
    27     7    25    1
    28     9    26    1
    29    10    27    1
    30    10    28    1
    31    13    29    1
    32    14    30    1
    33    15    31    1
    34    17    32    1
    35    18    33    1
    36    19    34    1
    37    20    35    1
    38    22    36    1
@<TRIPOS>MOLECULE
../data/bude_mols_rdkit_confs_charged/molecule_48.pdb
 36 38 0 0 0
SMALL
GASTEIGER

@<TRIPOS>ATOM
      1  O1         4.1830    1.8330   -1.9840 O.co2   1  UNL1       -0.5446
      2  C1         4.9500    1.2610   -1.0880 C.2     1  UNL1        0.0717
      3  O2         6.2310    1.6110   -1.0830 O.co2   1  UNL1       -0.5446
      4  C2         4.2580    0.3300   -0.2350 C.ar    1  UNL1       -0.0009
      5  C3         4.9780   -0.4040    0.6710 C.ar    1  UNL1       -0.0528
      6  C4         4.3550   -1.3280    1.4450 C.ar    1  UNL1       -0.0594
      7  C5         2.9930   -1.5370    1.3320 C.ar    1  UNL1       -0.0408
      8  C6         2.2020   -0.8230    0.4380 C.ar    1  UNL1        0.0280
      9  N1         0.8290   -1.0500    0.3730 N.pl3   1  UNL1       -0.3396
     10  C7         0.0070   -0.1500   -0.4440 C.3     1  UNL1        0.0384
     11  C8        -1.4210   -0.4190   -0.4250 C.ar    1  UNL1        0.0186
     12  C9        -1.8620   -1.6220   -0.9590 C.ar    1  UNL1        0.1221
     13  O3        -0.9430   -2.5270   -1.4250 O.3     1  UNL1       -0.5064
     14  C10       -3.2230   -1.8950   -1.0290 C.ar    1  UNL1       -0.0193
     15  C11       -4.1430   -0.9990   -0.5890 C.ar    1  UNL1       -0.0506
     16  C12       -3.6970    0.2160   -0.0640 C.ar    1  UNL1       -0.0173
     17  C13       -4.6500    1.1440    0.2810 C.ar    1  UNL1       -0.0540
     18  C14       -4.3130    2.4290    0.7270 C.ar    1  UNL1       -0.0612
     19  C15       -2.9880    2.7160    0.8070 C.ar    1  UNL1       -0.0612
     20  C16       -2.0090    1.7580    0.4560 C.ar    1  UNL1       -0.0536
     21  C17       -2.3370    0.5050    0.0200 C.ar    1  UNL1       -0.0097
     22  C18        2.8780    0.1030   -0.3290 C.ar    1  UNL1       -0.0320
     23 H           5.9947   -0.2539    0.7646 H       1  UNL1        0.0624
     24 H           4.9026   -1.8796    2.1239 H       1  UNL1        0.0618
     25 H           2.5473   -2.2482    1.9324 H       1  UNL1        0.0636
     26 H           0.4191   -1.7981    0.8646 H       1  UNL1        0.1464
     27 H           0.3433   -0.2246   -1.4570 H       1  UNL1        0.0512
     28 H           0.1285    0.8251   -0.0206 H       1  UNL1        0.0512
     29 H          -0.0276   -2.3339   -1.3734 H       1  UNL1        0.2921
     30 H          -3.5398   -2.7949   -1.4225 H       1  UNL1        0.0654
     31 H          -5.1516   -1.2113   -0.6414 H       1  UNL1        0.0625
     32 H          -5.6467    0.8861    0.2093 H       1  UNL1        0.0624
     33 H          -5.0345    3.1216    0.9816 H       1  UNL1        0.0618
     34 H          -2.6903    3.6500    1.1297 H       1  UNL1        0.0618
     35 H          -1.0121    2.0139    0.5317 H       1  UNL1        0.0624
     36 H           2.3378    0.6595   -1.0098 H       1  UNL1        0.0642
@<TRIPOS>UNITY_ATOM_ATTR
3 1
charge -1
@<TRIPOS>BOND
     1     1     2   ar
     2     2     3   ar
     3     2     4    1
     4     4     5   ar
     5     4    22   ar
     6     5     6   ar
     7     6     7   ar
     8     7     8   ar
     9     8     9    1
    10     8    22   ar
    11     9    10    1
    12    10    11    1
    13    11    12   ar
    14    11    21   ar
    15    12    13    1
    16    12    14   ar
    17    14    15   ar
    18    15    16   ar
    19    16    17   ar
    20    16    21   ar
    21    17    18   ar
    22    18    19   ar
    23    19    20   ar
    24    20    21   ar
    25     5    23    1
    26     6    24    1
    27     7    25    1
    28     9    26    1
    29    10    27    1
    30    10    28    1
    31    13    29    1
    32    14    30    1
    33    15    31    1
    34    17    32    1
    35    18    33    1
    36    19    34    1
    37    20    35    1
    38    22    36    1
@<TRIPOS>MOLECULE
../data/bude_mols_rdkit_confs_charged/molecule_48.pdb
 36 38 0 0 0
SMALL
GASTEIGER

@<TRIPOS>ATOM
      1  O1         5.5970   -0.5520   -2.6680 O.co2   1  UNL1       -0.5446
      2  C1         5.7660   -0.2780   -1.4710 C.2     1  UNL1        0.0717
      3  O2         7.0300   -0.2970   -0.8810 O.co2   1  UNL1       -0.5446
      4  C2         4.6260    0.0820   -0.6030 C.ar    1  UNL1       -0.0009
      5  C3         4.8200    0.2680    0.7480 C.ar    1  UNL1       -0.0528
      6  C4         3.7500    0.5730    1.5780 C.ar    1  UNL1       -0.0594
      7  C5         2.4570    0.7000    1.0670 C.ar    1  UNL1       -0.0408
      8  C6         2.2270    0.5250   -0.2870 C.ar    1  UNL1        0.0280
      9  N1         0.8950    0.6340   -0.7950 N.pl3   1  UNL1       -0.3396
     10  C7        -0.0130   -0.3200   -0.2970 C.3     1  UNL1        0.0384
     11  C8        -1.4490   -0.3370   -0.4900 C.ar    1  UNL1        0.0186
     12  C9        -1.9790   -1.3110   -1.3720 C.ar    1  UNL1        0.1221
     13  O3        -1.0400   -1.9660   -2.1210 O.3     1  UNL1       -0.5064
     14  C10       -3.3210   -1.5480   -1.4550 C.ar    1  UNL1       -0.0193
     15  C11       -4.2000   -0.8510   -0.6810 C.ar    1  UNL1       -0.0506
     16  C12       -3.7560    0.1220    0.2060 C.ar    1  UNL1       -0.0173
     17  C13       -4.6890    0.7970    1.0150 C.ar    1  UNL1       -0.0540
     18  C14       -4.2430    1.7300    1.9200 C.ar    1  UNL1       -0.0612
     19  C15       -2.8790    1.9480    1.9700 C.ar    1  UNL1       -0.0612
     20  C16       -1.9720    1.3070    1.1920 C.ar    1  UNL1       -0.0536
     21  C17       -2.3930    0.3660    0.2890 C.ar    1  UNL1       -0.0097
     22  C18        3.3300    0.2210   -1.0580 C.ar    1  UNL1       -0.0320
     23 H           5.7680    0.1799    1.1461 H       1  UNL1        0.0624
     24 H           3.9128    0.7079    2.5881 H       1  UNL1        0.0618
     25 H           1.6724    0.9244    1.6987 H       1  UNL1        0.0636
     26 H           0.6321    1.3251   -1.4450 H       1  UNL1        0.1464
     27 H           0.1230   -0.3033    0.7642 H       1  UNL1        0.0512
     28 H           0.2546   -1.1524   -0.9138 H       1  UNL1        0.0512
     29 H          -0.1318   -1.7591   -2.0191 H       1  UNL1        0.2921
     30 H          -3.6736   -2.2626   -2.1108 H       1  UNL1        0.0654
     31 H          -5.2102   -1.0488   -0.7548 H       1  UNL1        0.0625
     32 H          -5.6971    0.5935    0.9295 H       1  UNL1        0.0624
     33 H          -4.8954    2.2434    2.5331 H       1  UNL1        0.0618
     34 H          -2.5273    2.6453    2.6446 H       1  UNL1        0.0618
     35 H          -0.9676    1.5271    1.2796 H       1  UNL1        0.0624
     36 H           3.1716    0.0849   -2.0686 H       1  UNL1        0.0642
@<TRIPOS>UNITY_ATOM_ATTR
3 1
charge -1
@<TRIPOS>BOND
     1     1     2   ar
     2     2     3   ar
     3     2     4    1
     4     4     5   ar
     5     4    22   ar
     6     5     6   ar
     7     6     7   ar
     8     7     8   ar
     9     8     9    1
    10     8    22   ar
    11     9    10    1
    12    10    11    1
    13    11    12   ar
    14    11    21   ar
    15    12    13    1
    16    12    14   ar
    17    14    15   ar
    18    15    16   ar
    19    16    17   ar
    20    16    21   ar
    21    17    18   ar
    22    18    19   ar
    23    19    20   ar
    24    20    21   ar
    25     5    23    1
    26     6    24    1
    27     7    25    1
    28     9    26    1
    29    10    27    1
    30    10    28    1
    31    13    29    1
    32    14    30    1
    33    15    31    1
    34    17    32    1
    35    18    33    1
    36    19    34    1
    37    20    35    1
    38    22    36    1
@<TRIPOS>MOLECULE
../data/bude_mols_rdkit_confs_charged/molecule_48.pdb
 36 38 0 0 0
SMALL
GASTEIGER

@<TRIPOS>ATOM
      1  O1         6.7370    0.8740   -1.5350 O.co2   1  UNL1       -0.5446
      2  C1         5.4790    1.3280   -1.6710 C.2     1  UNL1        0.0717
      3  O2         5.2640    2.4330   -2.3510 O.co2   1  UNL1       -0.5446
      4  C2         4.5310    0.4550   -0.9740 C.ar    1  UNL1       -0.0009
      5  C3         4.9680   -0.6390   -0.2440 C.ar    1  UNL1       -0.0528
      6  C4         4.0120   -1.4320    0.4120 C.ar    1  UNL1       -0.0594
      7  C5         2.6490   -1.1500    0.3560 C.ar    1  UNL1       -0.0408
      8  C6         2.2260   -0.0650   -0.3640 C.ar    1  UNL1        0.0280
      9  N1         0.8390    0.2860   -0.4690 N.pl3   1  UNL1       -0.3396
     10  C7        -0.0710   -0.0970    0.5890 C.3     1  UNL1        0.0384
     11  C8        -1.4670    0.3790    0.3430 C.ar    1  UNL1        0.0186
     12  C9        -1.8460    1.5470    1.0230 C.ar    1  UNL1        0.1221
     13  O3        -0.8500    2.2500    1.7290 O.3     1  UNL1       -0.5064
     14  C10       -3.1090    2.0130    1.0040 C.ar    1  UNL1       -0.0193
     15  C11       -4.0660    1.2990    0.2770 C.ar    1  UNL1       -0.0506
     16  C12       -3.6850    0.1320   -0.3940 C.ar    1  UNL1       -0.0173
     17  C13       -4.6330   -0.6050   -1.0650 C.ar    1  UNL1       -0.0540
     18  C14       -4.3290   -1.7860   -1.7060 C.ar    1  UNL1       -0.0612
     19  C15       -3.0300   -2.2860   -1.7000 C.ar    1  UNL1       -0.0612
     20  C16       -2.0770   -1.5270   -1.0130 C.ar    1  UNL1       -0.0536
     21  C17       -2.3690   -0.3530   -0.3730 C.ar    1  UNL1       -0.0097
     22  C18        3.1630    0.7250   -1.0230 C.ar    1  UNL1       -0.0320
     23 H           5.9729   -0.8659   -0.1837 H       1  UNL1        0.0624
     24 H           4.3300   -2.2509    0.9535 H       1  UNL1        0.0618
     25 H           1.9689   -1.7493    0.8493 H       1  UNL1        0.0636
     26 H           0.5096    0.7824   -1.2528 H       1  UNL1        0.1464
     27 H           0.2773    0.3221    1.5098 H       1  UNL1        0.0512
     28 H          -0.0938   -1.1661    0.6274 H       1  UNL1        0.0512
     29 H           0.0297    1.9277    1.7437 H       1  UNL1        0.2921
     30 H          -3.3638    2.8742    1.5125 H       1  UNL1        0.0654
     31 H          -5.0429    1.6291    0.2357 H       1  UNL1        0.0625
     32 H          -5.6058   -0.2613   -1.0891 H       1  UNL1        0.0624
     33 H          -5.0733   -2.3061   -2.1965 H       1  UNL1        0.0618
     34 H          -2.7837   -3.1679   -2.1761 H       1  UNL1        0.0618
     35 H          -1.1039   -1.8697   -0.9874 H       1  UNL1        0.0624
     36 H           2.8348    1.5385   -1.5666 H       1  UNL1        0.0642
@<TRIPOS>UNITY_ATOM_ATTR
3 1
charge -1
@<TRIPOS>BOND
     1     1     2   ar
     2     2     3   ar
     3     2     4    1
     4     4     5   ar
     5     4    22   ar
     6     5     6   ar
     7     6     7   ar
     8     7     8   ar
     9     8     9    1
    10     8    22   ar
    11     9    10    1
    12    10    11    1
    13    11    12   ar
    14    11    21   ar
    15    12    13    1
    16    12    14   ar
    17    14    15   ar
    18    15    16   ar
    19    16    17   ar
    20    16    21   ar
    21    17    18   ar
    22    18    19   ar
    23    19    20   ar
    24    20    21   ar
    25     5    23    1
    26     6    24    1
    27     7    25    1
    28     9    26    1
    29    10    27    1
    30    10    28    1
    31    13    29    1
    32    14    30    1
    33    15    31    1
    34    17    32    1
    35    18    33    1
    36    19    34    1
    37    20    35    1
    38    22    36    1
@<TRIPOS>MOLECULE
../data/bude_mols_rdkit_confs_charged/molecule_48.pdb
 36 38 0 0 0
SMALL
GASTEIGER

@<TRIPOS>ATOM
      1  O1         4.5420    2.5790    0.7230 O.co2   1  UNL1       -0.5446
      2  C1         3.5540    1.8380    0.9590 C.2     1  UNL1        0.0717
      3  O2         2.7990    2.0630    2.1020 O.co2   1  UNL1       -0.5446
      4  C2         3.2150    0.7610    0.0410 C.ar    1  UNL1       -0.0009
      5  C3         3.9780    0.5540   -1.1000 C.ar    1  UNL1       -0.0528
      6  C4         3.6620   -0.4620   -1.9760 C.ar    1  UNL1       -0.0594
      7  C5         2.5800   -1.2800   -1.7180 C.ar    1  UNL1       -0.0408
      8  C6         1.8220   -1.0810   -0.5940 C.ar    1  UNL1        0.0280
      9  N1         0.7020   -1.9600   -0.3690 N.pl3   1  UNL1       -0.3396
     10  C7        -0.0830   -1.7930    0.7730 C.3     1  UNL1        0.0384
     11  C8        -1.1710   -0.8320    0.9130 C.ar    1  UNL1        0.0186
     12  C9        -1.7340   -0.7610    2.2240 C.ar    1  UNL1        0.1221
     13  O3        -1.1670   -1.6020    3.1650 O.3     1  UNL1       -0.5064
     14  C10       -2.7590    0.0740    2.5400 C.ar    1  UNL1       -0.0193
     15  C11       -3.3170    0.9040    1.6050 C.ar    1  UNL1       -0.0506
     16  C12       -2.8020    0.8620    0.3270 C.ar    1  UNL1       -0.0173
     17  C13       -3.3840    1.6800   -0.6230 C.ar    1  UNL1       -0.0540
     18  C14       -2.9200    1.6460   -1.9170 C.ar    1  UNL1       -0.0612
     19  C15       -1.8900    0.8040   -2.2450 C.ar    1  UNL1       -0.0612
     20  C16       -1.2780   -0.0350   -1.3070 C.ar    1  UNL1       -0.0536
     21  C17       -1.7440    0.0040   -0.0120 C.ar    1  UNL1       -0.0097
     22  C18        2.1440   -0.0680    0.2710 C.ar    1  UNL1       -0.0320
     23 H           4.7870    1.1648   -1.2936 H       1  UNL1        0.0624
     24 H           4.2328   -0.6110   -2.8228 H       1  UNL1        0.0618
     25 H           2.3420   -2.0418   -2.3722 H       1  UNL1        0.0636
     26 H           0.4924   -2.6723   -1.0155 H       1  UNL1        0.1464
     27 H           0.6047   -1.5601    1.5589 H       1  UNL1        0.0512
     28 H          -0.6378   -2.7078    0.7581 H       1  UNL1        0.0512
     29 H          -0.4612   -2.1685    2.9223 H       1  UNL1        0.2921
     30 H          -3.1243    0.0825    3.5051 H       1  UNL1        0.0654
     31 H          -4.0944    1.5377    1.8480 H       1  UNL1        0.0625
     32 H          -4.1591    2.3101   -0.3637 H       1  UNL1        0.0624
     33 H          -3.3450    2.2511   -2.6369 H       1  UNL1        0.0618
     34 H          -1.5529    0.7880   -3.2203 H       1  UNL1        0.0618
     35 H          -0.5037   -0.6617   -1.5768 H       1  UNL1        0.0624
     36 H           1.5682    0.0755    1.1153 H       1  UNL1        0.0642
@<TRIPOS>UNITY_ATOM_ATTR
3 1
charge -1
@<TRIPOS>BOND
     1     1     2   ar
     2     2     3   ar
     3     2     4    1
     4     4     5   ar
     5     4    22   ar
     6     5     6   ar
     7     6     7   ar
     8     7     8   ar
     9     8     9    1
    10     8    22   ar
    11     9    10    1
    12    10    11    1
    13    11    12   ar
    14    11    21   ar
    15    12    13    1
    16    12    14   ar
    17    14    15   ar
    18    15    16   ar
    19    16    17   ar
    20    16    21   ar
    21    17    18   ar
    22    18    19   ar
    23    19    20   ar
    24    20    21   ar
    25     5    23    1
    26     6    24    1
    27     7    25    1
    28     9    26    1
    29    10    27    1
    30    10    28    1
    31    13    29    1
    32    14    30    1
    33    15    31    1
    34    17    32    1
    35    18    33    1
    36    19    34    1
    37    20    35    1
    38    22    36    1
@<TRIPOS>MOLECULE
../data/bude_mols_rdkit_confs_charged/molecule_48.pdb
 36 38 0 0 0
SMALL
GASTEIGER

@<TRIPOS>ATOM
      1  O1         4.8230   -1.9830    2.4540 O.co2   1  UNL1       -0.5446
      2  C1         4.8020   -1.8890    1.2070 C.2     1  UNL1        0.0717
      3  O2         5.7660   -2.5570    0.4750 O.co2   1  UNL1       -0.5446
      4  C2         3.7990   -1.1010    0.5070 C.ar    1  UNL1       -0.0009
      5  C3         3.7700   -0.9940   -0.8640 C.ar    1  UNL1       -0.0528
      6  C4         2.8290   -0.2550   -1.5440 C.ar    1  UNL1       -0.0594
      7  C5         1.8400    0.4340   -0.8410 C.ar    1  UNL1       -0.0408
      8  C6         1.8630    0.3320    0.5310 C.ar    1  UNL1        0.0280
      9  N1         0.8580    1.0270    1.2940 N.pl3   1  UNL1       -0.3396
     10  C7        -0.1200    1.7920    0.6840 C.3     1  UNL1        0.0384
     11  C8        -1.3510    1.3280    0.1190 C.ar    1  UNL1        0.0186
     12  C9        -2.1250    2.3120   -0.5490 C.ar    1  UNL1        0.1221
     13  O3        -1.6320    3.5910   -0.5820 O.3     1  UNL1       -0.5064
     14  C10       -3.3220    2.0350   -1.1470 C.ar    1  UNL1       -0.0193
     15  C11       -3.7920    0.7540   -1.0970 C.ar    1  UNL1       -0.0506
     16  C12       -3.0960   -0.2390   -0.4670 C.ar    1  UNL1       -0.0173
     17  C13       -3.5820   -1.5300   -0.3890 C.ar    1  UNL1       -0.0540
     18  C14       -2.9170   -2.5370    0.2670 C.ar    1  UNL1       -0.0612
     19  C15       -1.7180   -2.2570    0.8720 C.ar    1  UNL1       -0.0612
     20  C16       -1.2260   -0.9480    0.7910 C.ar    1  UNL1       -0.0536
     21  C17       -1.8660    0.0760    0.1410 C.ar    1  UNL1       -0.0097
     22  C18        2.8140   -0.4140    1.1980 C.ar    1  UNL1       -0.0320
     23 H           4.4898   -1.4928   -1.4100 H       1  UNL1        0.0624
     24 H           2.8548   -0.2104   -2.5747 H       1  UNL1        0.0618
     25 H           1.1236    0.9948   -1.3281 H       1  UNL1        0.0636
     26 H           0.8674    0.9556    2.2759 H       1  UNL1        0.1464
     27 H           0.3813    2.2901   -0.1194 H       1  UNL1        0.0512
     28 H          -0.5060    2.2953    1.5457 H       1  UNL1        0.0512
     29 H          -0.8118    3.7876   -0.1739 H       1  UNL1        0.2921
     30 H          -3.8579    2.7762   -1.6250 H       1  UNL1        0.0654
     31 H          -4.6941    0.5305   -1.5456 H       1  UNL1        0.0625
     32 H          -4.4830   -1.7469   -0.8430 H       1  UNL1        0.0624
     33 H          -3.3131   -3.4892    0.3042 H       1  UNL1        0.0618
     34 H          -1.1929   -2.9907    1.3731 H       1  UNL1        0.0618
     35 H          -0.3249   -0.7411    1.2495 H       1  UNL1        0.0624
     36 H           2.7909   -0.4608    2.2287 H       1  UNL1        0.0642
@<TRIPOS>UNITY_ATOM_ATTR
3 1
charge -1
@<TRIPOS>BOND
     1     1     2   ar
     2     2     3   ar
     3     2     4    1
     4     4     5   ar
     5     4    22   ar
     6     5     6   ar
     7     6     7   ar
     8     7     8   ar
     9     8     9    1
    10     8    22   ar
    11     9    10    1
    12    10    11    1
    13    11    12   ar
    14    11    21   ar
    15    12    13    1
    16    12    14   ar
    17    14    15   ar
    18    15    16   ar
    19    16    17   ar
    20    16    21   ar
    21    17    18   ar
    22    18    19   ar
    23    19    20   ar
    24    20    21   ar
    25     5    23    1
    26     6    24    1
    27     7    25    1
    28     9    26    1
    29    10    27    1
    30    10    28    1
    31    13    29    1
    32    14    30    1
    33    15    31    1
    34    17    32    1
    35    18    33    1
    36    19    34    1
    37    20    35    1
    38    22    36    1
@<TRIPOS>MOLECULE
../data/bude_mols_rdkit_confs_charged/molecule_48.pdb
 36 38 0 0 0
SMALL
GASTEIGER

@<TRIPOS>ATOM
      1  O1         6.9420    0.5050    1.0640 O.co2   1  UNL1       -0.5446
      2  C1         5.7960    1.0260    1.1520 C.2     1  UNL1        0.0717
      3  O2         5.5840    2.2030    1.8290 O.co2   1  UNL1       -0.5446
      4  C2         4.6860    0.3490    0.5070 C.ar    1  UNL1       -0.0009
      5  C3         4.8860   -0.8110   -0.2120 C.ar    1  UNL1       -0.0528
      6  C4         3.8390   -1.4300   -0.8200 C.ar    1  UNL1       -0.0594
      7  C5         2.5800   -0.8860   -0.7120 C.ar    1  UNL1       -0.0408
      8  C6         2.3070    0.2880    0.0030 C.ar    1  UNL1        0.0280
      9  N1         0.9820    0.7930    0.0960 N.pl3   1  UNL1       -0.3396
     10  C7        -0.0270    0.1140   -0.7150 C.3     1  UNL1        0.0384
     11  C8        -1.3990    0.5210   -0.5000 C.ar    1  UNL1        0.0186
     12  C9        -1.8150    1.8480   -0.5250 C.ar    1  UNL1        0.1221
     13  O3        -0.8880    2.8580   -0.7000 O.3     1  UNL1       -0.5064
     14  C10       -3.1410    2.2200   -0.3770 C.ar    1  UNL1       -0.0193
     15  C11       -4.1080    1.2720   -0.1970 C.ar    1  UNL1       -0.0506
     16  C12       -3.7260   -0.0600   -0.1700 C.ar    1  UNL1       -0.0173
     17  C13       -4.7730   -0.9540   -0.0110 C.ar    1  UNL1       -0.0540
     18  C14       -4.4720   -2.2980   -0.0030 C.ar    1  UNL1       -0.0612
     19  C15       -3.1830   -2.7070   -0.1490 C.ar    1  UNL1       -0.0612
     20  C16       -2.1490   -1.7760   -0.3060 C.ar    1  UNL1       -0.0536
     21  C17       -2.4040   -0.4250   -0.3170 C.ar    1  UNL1       -0.0097
     22  C18        3.4130    0.8600    0.5920 C.ar    1  UNL1       -0.0320
     23 H           5.8343   -1.2108   -0.2888 H       1  UNL1        0.0624
     24 H           3.9873   -2.2988   -1.3569 H       1  UNL1        0.0618
     25 H           1.7968   -1.3669   -1.1814 H       1  UNL1        0.0636
     26 H           0.7563    1.5572    0.6741 H       1  UNL1        0.1464
     27 H           0.0390   -0.9338   -0.5083 H       1  UNL1        0.0512
     28 H           0.1947    0.3778   -1.7280 H       1  UNL1        0.0512
     29 H           0.0193    2.6483   -0.8038 H       1  UNL1        0.2921
     30 H          -3.3998    3.2187   -0.4028 H       1  UNL1        0.0654
     31 H          -5.0979    1.5409   -0.0840 H       1  UNL1        0.0625
     32 H          -5.7448   -0.6240    0.0977 H       1  UNL1        0.0624
     33 H          -5.2244   -2.9947    0.1138 H       1  UNL1        0.0618
     34 H          -2.9645   -3.7156   -0.1440 H       1  UNL1        0.0618
     35 H          -1.1786   -2.1097   -0.4154 H       1  UNL1        0.0624
     36 H           3.2769    1.7287    1.1322 H       1  UNL1        0.0642
@<TRIPOS>UNITY_ATOM_ATTR
3 1
charge -1
@<TRIPOS>BOND
     1     1     2   ar
     2     2     3   ar
     3     2     4    1
     4     4     5   ar
     5     4    22   ar
     6     5     6   ar
     7     6     7   ar
     8     7     8   ar
     9     8     9    1
    10     8    22   ar
    11     9    10    1
    12    10    11    1
    13    11    12   ar
    14    11    21   ar
    15    12    13    1
    16    12    14   ar
    17    14    15   ar
    18    15    16   ar
    19    16    17   ar
    20    16    21   ar
    21    17    18   ar
    22    18    19   ar
    23    19    20   ar
    24    20    21   ar
    25     5    23    1
    26     6    24    1
    27     7    25    1
    28     9    26    1
    29    10    27    1
    30    10    28    1
    31    13    29    1
    32    14    30    1
    33    15    31    1
    34    17    32    1
    35    18    33    1
    36    19    34    1
    37    20    35    1
    38    22    36    1
@<TRIPOS>MOLECULE
../data/bude_mols_rdkit_confs_charged/molecule_48.pdb
 36 38 0 0 0
SMALL
GASTEIGER

@<TRIPOS>ATOM
      1  O1         2.5890   -0.2860   -2.7690 O.co2   1  UNL1       -0.5446
      2  C1         3.2460    0.6130   -2.1960 C.2     1  UNL1        0.0717
      3  O2         4.1650    1.3820   -2.8790 O.co2   1  UNL1       -0.5446
      4  C2         3.0020    0.8190   -0.7690 C.ar    1  UNL1       -0.0009
      5  C3         3.7310    1.8080   -0.1270 C.ar    1  UNL1       -0.0528
      6  C4         3.5020    1.9960    1.2160 C.ar    1  UNL1       -0.0594
      7  C5         2.5780    1.2260    1.9020 C.ar    1  UNL1       -0.0408
      8  C6         1.8670    0.2530    1.2460 C.ar    1  UNL1        0.0280
      9  N1         0.8960   -0.5630    1.9600 N.pl3   1  UNL1       -0.3396
     10  C7         0.1960   -1.5360    1.2600 C.3     1  UNL1        0.0384
     11  C8        -0.9950   -1.3560    0.4700 C.ar    1  UNL1        0.0186
     12  C9        -1.4320   -2.5290   -0.2280 C.ar    1  UNL1        0.1221
     13  O3        -0.7370   -3.7200   -0.1030 O.3     1  UNL1       -0.5064
     14  C10       -2.5330   -2.4750   -1.0120 C.ar    1  UNL1       -0.0193
     15  C11       -3.2690   -1.3490   -1.1820 C.ar    1  UNL1       -0.0506
     16  C12       -2.8760   -0.1910   -0.5170 C.ar    1  UNL1       -0.0173
     17  C13       -3.6490    0.9370   -0.6760 C.ar    1  UNL1       -0.0540
     18  C14       -3.2990    2.0760   -0.0060 C.ar    1  UNL1       -0.0612
     19  C15       -2.1910    2.0580    0.8010 C.ar    1  UNL1       -0.0612
     20  C16       -1.4010    0.9290    0.9710 C.ar    1  UNL1       -0.0536
     21  C17       -1.7500   -0.2250    0.2930 C.ar    1  UNL1       -0.0097
     22  C18        2.0690    0.0370   -0.0950 C.ar    1  UNL1       -0.0320
     23 H           4.4200    2.3819   -0.6379 H       1  UNL1        0.0624
     24 H           4.0289    2.7249    1.7221 H       1  UNL1        0.0618
     25 H           2.4236    1.3845    2.9100 H       1  UNL1        0.0636
     26 H           0.7385   -0.4272    2.9223 H       1  UNL1        0.1464
     27 H          -0.0710   -2.2649    1.9964 H       1  UNL1        0.0512
     28 H           0.8967   -1.7133    0.4710 H       1  UNL1        0.0512
     29 H           0.0262   -3.7624    0.4389 H       1  UNL1        0.2921
     30 H          -2.8272   -3.3327   -1.5048 H       1  UNL1        0.0654
     31 H          -4.1022   -1.3505   -1.7910 H       1  UNL1        0.0625
     32 H          -4.4782    0.9230   -1.2902 H       1  UNL1        0.0624
     33 H          -3.8603    2.9362   -0.1062 H       1  UNL1        0.0618
     34 H          -1.9328    2.9213    1.3041 H       1  UNL1        0.0618
     35 H          -0.5739    0.9503    1.5879 H       1  UNL1        0.0624
     36 H           1.5377   -0.6932   -0.5946 H       1  UNL1        0.0642
@<TRIPOS>UNITY_ATOM_ATTR
3 1
charge -1
@<TRIPOS>BOND
     1     1     2   ar
     2     2     3   ar
     3     2     4    1
     4     4     5   ar
     5     4    22   ar
     6     5     6   ar
     7     6     7   ar
     8     7     8   ar
     9     8     9    1
    10     8    22   ar
    11     9    10    1
    12    10    11    1
    13    11    12   ar
    14    11    21   ar
    15    12    13    1
    16    12    14   ar
    17    14    15   ar
    18    15    16   ar
    19    16    17   ar
    20    16    21   ar
    21    17    18   ar
    22    18    19   ar
    23    19    20   ar
    24    20    21   ar
    25     5    23    1
    26     6    24    1
    27     7    25    1
    28     9    26    1
    29    10    27    1
    30    10    28    1
    31    13    29    1
    32    14    30    1
    33    15    31    1
    34    17    32    1
    35    18    33    1
    36    19    34    1
    37    20    35    1
    38    22    36    1
@<TRIPOS>MOLECULE
../data/bude_mols_rdkit_confs_charged/molecule_48.pdb
 36 38 0 0 0
SMALL
GASTEIGER

@<TRIPOS>ATOM
      1  O1         5.6220    2.5560   -0.7480 O.co2   1  UNL1       -0.5446
      2  C1         5.7680    1.3170   -0.5420 C.2     1  UNL1        0.0717
      3  O2         7.0100    0.7680   -0.6800 O.co2   1  UNL1       -0.5446
      4  C2         4.6410    0.4700   -0.1650 C.ar    1  UNL1       -0.0009
      5  C3         4.8300   -0.9040    0.0470 C.ar    1  UNL1       -0.0528
      6  C4         3.7770   -1.6960    0.3730 C.ar    1  UNL1       -0.0594
      7  C5         2.5080   -1.1300    0.4950 C.ar    1  UNL1       -0.0408
      8  C6         2.2940    0.2370    0.2890 C.ar    1  UNL1        0.0280
      9  N1         0.9570    0.7000    0.3540 N.pl3   1  UNL1       -0.3396
     10  C7        -0.0160   -0.0100   -0.4630 C.3     1  UNL1        0.0384
     11  C8        -1.3850    0.4690   -0.2940 C.ar    1  UNL1        0.0186
     12  C9        -1.7080    1.8030   -0.3910 C.ar    1  UNL1        0.1221
     13  O3        -0.6830    2.7040   -0.5990 O.3     1  UNL1       -0.5064
     14  C10       -2.9900    2.2470   -0.2890 C.ar    1  UNL1       -0.0193
     15  C11       -4.0500    1.3670   -0.0830 C.ar    1  UNL1       -0.0506
     16  C12       -3.7150    0.0380    0.0120 C.ar    1  UNL1       -0.0173
     17  C13       -4.7620   -0.8570    0.1960 C.ar    1  UNL1       -0.0540
     18  C14       -4.5440   -2.2100    0.2850 C.ar    1  UNL1       -0.0612
     19  C15       -3.2730   -2.7180    0.1930 C.ar    1  UNL1       -0.0612
     20  C16       -2.2410   -1.7940    0.0070 C.ar    1  UNL1       -0.0536
     21  C17       -2.4120   -0.4370   -0.0860 C.ar    1  UNL1       -0.0097
     22  C18        3.3680    1.0030   -0.0340 C.ar    1  UNL1       -0.0320
     23 H           5.7727   -1.3138   -0.0452 H       1  UNL1        0.0624
     24 H           3.9139   -2.7069    0.5291 H       1  UNL1        0.0618
     25 H           1.7085   -1.7336    0.7430 H       1  UNL1        0.0636
     26 H           0.6994    1.4619    0.9218 H       1  UNL1        0.1464
     27 H           0.0141   -1.0467   -0.1998 H       1  UNL1        0.0512
     28 H           0.2508    0.1595   -1.4853 H       1  UNL1        0.0512
     29 H           0.2006    2.4003   -0.6695 H       1  UNL1        0.2921
     30 H          -3.1814    3.2582   -0.3660 H       1  UNL1        0.0654
     31 H          -5.0261    1.6930   -0.0065 H       1  UNL1        0.0625
     32 H          -5.7263   -0.4964    0.2675 H       1  UNL1        0.0624
     33 H          -5.3424   -2.8494    0.4221 H       1  UNL1        0.0618
     34 H          -3.0882   -3.7312    0.2579 H       1  UNL1        0.0618
     35 H          -1.2790   -2.1604   -0.0657 H       1  UNL1        0.0624
     36 H           3.2320    2.0145   -0.1869 H       1  UNL1        0.0642
@<TRIPOS>UNITY_ATOM_ATTR
3 1
charge -1
@<TRIPOS>BOND
     1     1     2   ar
     2     2     3   ar
     3     2     4    1
     4     4     5   ar
     5     4    22   ar
     6     5     6   ar
     7     6     7   ar
     8     7     8   ar
     9     8     9    1
    10     8    22   ar
    11     9    10    1
    12    10    11    1
    13    11    12   ar
    14    11    21   ar
    15    12    13    1
    16    12    14   ar
    17    14    15   ar
    18    15    16   ar
    19    16    17   ar
    20    16    21   ar
    21    17    18   ar
    22    18    19   ar
    23    19    20   ar
    24    20    21   ar
    25     5    23    1
    26     6    24    1
    27     7    25    1
    28     9    26    1
    29    10    27    1
    30    10    28    1
    31    13    29    1
    32    14    30    1
    33    15    31    1
    34    17    32    1
    35    18    33    1
    36    19    34    1
    37    20    35    1
    38    22    36    1
@<TRIPOS>MOLECULE
../data/bude_mols_rdkit_confs_charged/molecule_48.pdb
 36 38 0 0 0
SMALL
GASTEIGER

@<TRIPOS>ATOM
      1  O1         6.1890   -2.0380   -0.4440 O.co2   1  UNL1       -0.5446
      2  C1         5.0490   -1.7270   -0.9160 C.2     1  UNL1        0.0717
      3  O2         4.5900   -2.4600   -1.9800 O.co2   1  UNL1       -0.5446
      4  C2         4.2920   -0.6370   -0.3290 C.ar    1  UNL1       -0.0009
      5  C3         4.8520    0.0660    0.7170 C.ar    1  UNL1       -0.0528
      6  C4         4.1230    1.0970    1.2530 C.ar    1  UNL1       -0.0594
      7  C5         2.8470    1.4090    0.7470 C.ar    1  UNL1       -0.0408
      8  C6         2.2970    0.7140   -0.2850 C.ar    1  UNL1        0.0280
      9  N1         0.9740    1.0210   -0.7280 N.pl3   1  UNL1       -0.3396
     10  C7        -0.0660    0.5300    0.1730 C.3     1  UNL1        0.0384
     11  C8        -1.4470    0.6780   -0.2490 C.ar    1  UNL1        0.0186
     12  C9        -1.8960    1.9380   -0.5950 C.ar    1  UNL1        0.1221
     13  O3        -1.0100    3.0250   -0.6390 O.3     1  UNL1       -0.5064
     14  C10       -3.2260    2.0900   -0.8990 C.ar    1  UNL1       -0.0193
     15  C11       -4.0890    1.0240   -0.8580 C.ar    1  UNL1       -0.0506
     16  C12       -3.6620   -0.2230   -0.5180 C.ar    1  UNL1       -0.0173
     17  C13       -4.5370   -1.3040   -0.4620 C.ar    1  UNL1       -0.0540
     18  C14       -4.0840   -2.5520   -0.1040 C.ar    1  UNL1       -0.0612
     19  C15       -2.7590   -2.7540    0.2040 C.ar    1  UNL1       -0.0612
     20  C16       -1.8950   -1.6860    0.1510 C.ar    1  UNL1       -0.0536
     21  C17       -2.3190   -0.4220   -0.2040 C.ar    1  UNL1       -0.0097
     22  C18        3.0410   -0.3180   -0.8230 C.ar    1  UNL1       -0.0320
     23 H           5.7862   -0.1750    1.0834 H       1  UNL1        0.0624
     24 H           4.5131    1.6483    2.0334 H       1  UNL1        0.0618
     25 H           2.3148    2.1854    1.1701 H       1  UNL1        0.0636
     26 H           0.7821    1.5144   -1.5580 H       1  UNL1        0.1464
     27 H           0.0425    1.0513    1.1011 H       1  UNL1        0.0512
     28 H           0.0918   -0.5273    0.2188 H       1  UNL1        0.0512
     29 H          -0.1055    2.9010   -0.4280 H       1  UNL1        0.2921
     30 H          -3.5828    3.0217   -1.1628 H       1  UNL1        0.0654
     31 H          -5.0838    1.1709   -1.0901 H       1  UNL1        0.0625
     32 H          -5.5340   -1.1678   -0.6911 H       1  UNL1        0.0624
     33 H          -4.7443   -3.3442   -0.0661 H       1  UNL1        0.0618
     34 H          -2.4191   -3.6913    0.4704 H       1  UNL1        0.0618
     35 H          -0.9005   -1.8340    0.3835 H       1  UNL1        0.0624
     36 H           2.6548   -0.8622   -1.6102 H       1  UNL1        0.0642
@<TRIPOS>UNITY_ATOM_ATTR
3 1
charge -1
@<TRIPOS>BOND
     1     1     2   ar
     2     2     3   ar
     3     2     4    1
     4     4     5   ar
     5     4    22   ar
     6     5     6   ar
     7     6     7   ar
     8     7     8   ar
     9     8     9    1
    10     8    22   ar
    11     9    10    1
    12    10    11    1
    13    11    12   ar
    14    11    21   ar
    15    12    13    1
    16    12    14   ar
    17    14    15   ar
    18    15    16   ar
    19    16    17   ar
    20    16    21   ar
    21    17    18   ar
    22    18    19   ar
    23    19    20   ar
    24    20    21   ar
    25     5    23    1
    26     6    24    1
    27     7    25    1
    28     9    26    1
    29    10    27    1
    30    10    28    1
    31    13    29    1
    32    14    30    1
    33    15    31    1
    34    17    32    1
    35    18    33    1
    36    19    34    1
    37    20    35    1
    38    22    36    1
@<TRIPOS>MOLECULE
../data/bude_mols_rdkit_confs_charged/molecule_48.pdb
 36 38 0 0 0
SMALL
GASTEIGER

@<TRIPOS>ATOM
      1  O1         6.7750    1.0490    0.2620 O.co2   1  UNL1       -0.5446
      2  C1         5.5490    1.3790    0.1840 C.2     1  UNL1        0.0717
      3  O2         5.1880    2.7110    0.0030 O.co2   1  UNL1       -0.5446
      4  C2         4.5390    0.3370    0.2910 C.ar    1  UNL1       -0.0009
      5  C3         4.9290   -0.9690    0.4590 C.ar    1  UNL1       -0.0528
      6  C4         3.9720   -1.9720    0.5600 C.ar    1  UNL1       -0.0594
      7  C5         2.6470   -1.6820    0.4990 C.ar    1  UNL1       -0.0408
      8  C6         2.1880   -0.3550    0.3320 C.ar    1  UNL1        0.0280
      9  N1         0.8480   -0.0450    0.3180 N.pl3   1  UNL1       -0.3396
     10  C7        -0.0080    0.0960   -0.8290 C.3     1  UNL1        0.0384
     11  C8        -1.3400    0.5120   -0.2730 C.ar    1  UNL1        0.0186
     12  C9        -1.4650    1.8700    0.0160 C.ar    1  UNL1        0.1221
     13  O3        -0.2810    2.6410   -0.1560 O.3     1  UNL1       -0.5064
     14  C10       -2.6230    2.4150    0.4180 C.ar    1  UNL1       -0.0193
     15  C11       -3.7660    1.6130    0.5520 C.ar    1  UNL1       -0.0506
     16  C12       -3.6660    0.2690    0.2710 C.ar    1  UNL1       -0.0173
     17  C13       -4.8240   -0.5140    0.2980 C.ar    1  UNL1       -0.0540
     18  C14       -4.8260   -1.8360   -0.0690 C.ar    1  UNL1       -0.0612
     19  C15       -3.6090   -2.3520   -0.4680 C.ar    1  UNL1       -0.0612
     20  C16       -2.4470   -1.6050   -0.5050 C.ar    1  UNL1       -0.0536
     21  C17       -2.4340   -0.2720   -0.1440 C.ar    1  UNL1       -0.0097
     22  C18        3.1770    0.5970    0.2360 C.ar    1  UNL1       -0.0320
     23 H           5.9322   -1.2056    0.5102 H       1  UNL1        0.0624
     24 H           4.2730   -2.9514    0.6832 H       1  UNL1        0.0618
     25 H           1.9592   -2.4475    0.5763 H       1  UNL1        0.0636
     26 H           0.4255    0.0970    1.1958 H       1  UNL1        0.1464
     27 H          -0.0927   -0.8340   -1.3514 H       1  UNL1        0.0512
     28 H           0.3744    0.8082   -1.5301 H       1  UNL1        0.0512
     29 H           0.5108    2.2270   -0.4383 H       1  UNL1        0.2921
     30 H          -2.6729    3.4240    0.6286 H       1  UNL1        0.0654
     31 H          -4.6637    2.0221    0.8551 H       1  UNL1        0.0625
     32 H          -5.7094   -0.0819    0.6051 H       1  UNL1        0.0624
     33 H          -5.6839   -2.4092   -0.0481 H       1  UNL1        0.0618
     34 H          -3.5651   -3.3431   -0.7522 H       1  UNL1        0.0618
     35 H          -1.5688   -2.0535   -0.8094 H       1  UNL1        0.0624
     36 H           2.8835    1.5788    0.1138 H       1  UNL1        0.0642
@<TRIPOS>UNITY_ATOM_ATTR
3 1
charge -1
@<TRIPOS>BOND
     1     1     2   ar
     2     2     3   ar
     3     2     4    1
     4     4     5   ar
     5     4    22   ar
     6     5     6   ar
     7     6     7   ar
     8     7     8   ar
     9     8     9    1
    10     8    22   ar
    11     9    10    1
    12    10    11    1
    13    11    12   ar
    14    11    21   ar
    15    12    13    1
    16    12    14   ar
    17    14    15   ar
    18    15    16   ar
    19    16    17   ar
    20    16    21   ar
    21    17    18   ar
    22    18    19   ar
    23    19    20   ar
    24    20    21   ar
    25     5    23    1
    26     6    24    1
    27     7    25    1
    28     9    26    1
    29    10    27    1
    30    10    28    1
    31    13    29    1
    32    14    30    1
    33    15    31    1
    34    17    32    1
    35    18    33    1
    36    19    34    1
    37    20    35    1
    38    22    36    1
@<TRIPOS>MOLECULE
../data/bude_mols_rdkit_confs_charged/molecule_48.pdb
 36 38 0 0 0
SMALL
GASTEIGER

@<TRIPOS>ATOM
      1  O1         5.7810   -1.1190    2.2120 O.co2   1  UNL1       -0.5446
      2  C1         4.5700   -0.9600    2.0690 C.2     1  UNL1        0.0717
      3  O2         3.6770   -1.1920    3.1240 O.co2   1  UNL1       -0.5446
      4  C2         3.9650   -0.5200    0.7900 C.ar    1  UNL1       -0.0009
      5  C3         4.7580   -0.2750   -0.3100 C.ar    1  UNL1       -0.0528
      6  C4         4.1990    0.1650   -1.5150 C.ar    1  UNL1       -0.0594
      7  C5         2.8460    0.3490   -1.6130 C.ar    1  UNL1       -0.0408
      8  C6         2.0510    0.1060   -0.5300 C.ar    1  UNL1        0.0280
      9  N1         0.6670    0.2130   -0.5820 N.pl3   1  UNL1       -0.3396
     10  C7        -0.2520    0.8570   -1.5130 C.3     1  UNL1        0.0384
     11  C8        -1.5530    0.2260   -1.0250 C.ar    1  UNL1        0.0186
     12  C9        -2.0580   -0.7240   -1.8600 C.ar    1  UNL1        0.1221
     13  O3        -1.5340   -1.0180   -3.1040 O.3     1  UNL1       -0.5064
     14  C10       -3.1810   -1.4680   -1.4370 C.ar    1  UNL1       -0.0193
     15  C11       -3.7150   -1.2030   -0.2090 C.ar    1  UNL1       -0.0506
     16  C12       -3.2130   -0.2260    0.6490 C.ar    1  UNL1       -0.0173
     17  C13       -3.8460    0.0670    1.8280 C.ar    1  UNL1       -0.0540
     18  C14       -3.3800    1.1100    2.5870 C.ar    1  UNL1       -0.0612
     19  C15       -2.2790    1.8500    2.1820 C.ar    1  UNL1       -0.0612
     20  C16       -1.6570    1.5210    0.9880 C.ar    1  UNL1       -0.0536
     21  C17       -2.0980    0.4800    0.1800 C.ar    1  UNL1       -0.0097
     22  C18        2.6150   -0.3310    0.6870 C.ar    1  UNL1       -0.0320
     23 H           5.7779   -0.4179   -0.2442 H       1  UNL1        0.0624
     24 H           4.8059    0.3506   -2.3288 H       1  UNL1        0.0618
     25 H           2.4291    0.6697   -2.5009 H       1  UNL1        0.0636
     26 H           0.2123   -0.2399    0.1646 H       1  UNL1        0.1464
     27 H          -0.0382    0.6032   -2.5302 H       1  UNL1        0.0512
     28 H          -0.2301    1.9267   -1.5204 H       1  UNL1        0.0512
     29 H          -0.7889   -0.5470   -3.4217 H       1  UNL1        0.2921
     30 H          -3.5893   -2.1965   -2.0432 H       1  UNL1        0.0654
     31 H          -4.5314   -1.7537    0.0996 H       1  UNL1        0.0625
     32 H          -4.6590   -0.4872    2.1395 H       1  UNL1        0.0624
     33 H          -3.8552    1.3475    3.4718 H       1  UNL1        0.0618
     34 H          -1.9295    2.6310    2.7590 H       1  UNL1        0.0618
     35 H          -0.8359    2.0694    0.6879 H       1  UNL1        0.0624
     36 H           2.0069   -0.5085    1.5017 H       1  UNL1        0.0642
@<TRIPOS>UNITY_ATOM_ATTR
3 1
charge -1
@<TRIPOS>BOND
     1     1     2   ar
     2     2     3   ar
     3     2     4    1
     4     4     5   ar
     5     4    22   ar
     6     5     6   ar
     7     6     7   ar
     8     7     8   ar
     9     8     9    1
    10     8    22   ar
    11     9    10    1
    12    10    11    1
    13    11    12   ar
    14    11    21   ar
    15    12    13    1
    16    12    14   ar
    17    14    15   ar
    18    15    16   ar
    19    16    17   ar
    20    16    21   ar
    21    17    18   ar
    22    18    19   ar
    23    19    20   ar
    24    20    21   ar
    25     5    23    1
    26     6    24    1
    27     7    25    1
    28     9    26    1
    29    10    27    1
    30    10    28    1
    31    13    29    1
    32    14    30    1
    33    15    31    1
    34    17    32    1
    35    18    33    1
    36    19    34    1
    37    20    35    1
    38    22    36    1
@<TRIPOS>MOLECULE
../data/bude_mols_rdkit_confs_charged/molecule_48.pdb
 36 38 0 0 0
SMALL
GASTEIGER

@<TRIPOS>ATOM
      1  O1         5.7440   -0.9150    1.9510 O.co2   1  UNL1       -0.5446
      2  C1         5.7240   -0.5360    0.7250 C.2     1  UNL1        0.0717
      3  O2         6.8990   -0.6700   -0.0320 O.co2   1  UNL1       -0.5446
      4  C2         4.5300   -0.0160    0.1270 C.ar    1  UNL1       -0.0009
      5  C3         4.6340    1.0150   -0.8380 C.ar    1  UNL1       -0.0528
      6  C4         3.5480    1.6220   -1.3500 C.ar    1  UNL1       -0.0594
      7  C5         2.2460    1.3030   -1.0000 C.ar    1  UNL1       -0.0408
      8  C6         2.1080    0.3050   -0.0680 C.ar    1  UNL1        0.0280
      9  N1         0.7930   -0.1370    0.2480 N.pl3   1  UNL1       -0.3396
     10  C7        -0.0820   -0.9020   -0.6300 C.3     1  UNL1        0.0384
     11  C8        -1.4470   -1.0180   -0.1330 C.ar    1  UNL1        0.0186
     12  C9        -2.0390   -2.2750    0.0100 C.ar    1  UNL1        0.1221
     13  O3        -1.1990   -3.3810   -0.1380 O.3     1  UNL1       -0.5064
     14  C10       -3.3610   -2.5150    0.2990 C.ar    1  UNL1       -0.0193
     15  C11       -4.1700   -1.4070    0.4680 C.ar    1  UNL1       -0.0506
     16  C12       -3.6480   -0.1630    0.3290 C.ar    1  UNL1       -0.0173
     17  C13       -4.4940    0.9510    0.3620 C.ar    1  UNL1       -0.0540
     18  C14       -4.0480    2.2150    0.0940 C.ar    1  UNL1       -0.0612
     19  C15       -2.6910    2.4340   -0.2220 C.ar    1  UNL1       -0.0612
     20  C16       -1.8390    1.3310   -0.2340 C.ar    1  UNL1       -0.0536
     21  C17       -2.2860    0.0840    0.0290 C.ar    1  UNL1       -0.0097
     22  C18        3.2330   -0.3230    0.4750 C.ar    1  UNL1       -0.0320
     23 H           5.5700    1.3093   -1.1578 H       1  UNL1        0.0624
     24 H           3.6936    2.3704   -2.0455 H       1  UNL1        0.0618
     25 H           1.4324    1.7848   -1.4134 H       1  UNL1        0.0636
     26 H           0.4436    0.0947    1.1388 H       1  UNL1        0.1464
     27 H           0.3236   -1.8861   -0.7386 H       1  UNL1        0.0512
     28 H          -0.1297   -0.3776   -1.5615 H       1  UNL1        0.0512
     29 H          -0.2914   -3.2570   -0.3352 H       1  UNL1        0.2921
     30 H          -3.7312   -3.4744    0.3855 H       1  UNL1        0.0654
     31 H          -5.1687   -1.5261    0.6994 H       1  UNL1        0.0625
     32 H          -5.4895    0.8135    0.5969 H       1  UNL1        0.0624
     33 H          -4.7051    3.0102    0.1229 H       1  UNL1        0.0618
     34 H          -2.3403    3.3804   -0.4374 H       1  UNL1        0.0618
     35 H          -0.8395    1.4710   -0.4497 H       1  UNL1        0.0624
     36 H           3.0825   -1.0618    1.1797 H       1  UNL1        0.0642
@<TRIPOS>UNITY_ATOM_ATTR
3 1
charge -1
@<TRIPOS>BOND
     1     1     2   ar
     2     2     3   ar
     3     2     4    1
     4     4     5   ar
     5     4    22   ar
     6     5     6   ar
     7     6     7   ar
     8     7     8   ar
     9     8     9    1
    10     8    22   ar
    11     9    10    1
    12    10    11    1
    13    11    12   ar
    14    11    21   ar
    15    12    13    1
    16    12    14   ar
    17    14    15   ar
    18    15    16   ar
    19    16    17   ar
    20    16    21   ar
    21    17    18   ar
    22    18    19   ar
    23    19    20   ar
    24    20    21   ar
    25     5    23    1
    26     6    24    1
    27     7    25    1
    28     9    26    1
    29    10    27    1
    30    10    28    1
    31    13    29    1
    32    14    30    1
    33    15    31    1
    34    17    32    1
    35    18    33    1
    36    19    34    1
    37    20    35    1
    38    22    36    1
@<TRIPOS>MOLECULE
../data/bude_mols_rdkit_confs_charged/molecule_48.pdb
 36 38 0 0 0
SMALL
GASTEIGER

@<TRIPOS>ATOM
      1  O1         6.5820    1.8550    0.7730 O.co2   1  UNL1       -0.5446
      2  C1         5.3880    1.6560    1.1600 C.2     1  UNL1        0.0717
      3  O2         4.9820    2.2670    2.3250 O.co2   1  UNL1       -0.5446
      4  C2         4.4900    0.8080    0.4040 C.ar    1  UNL1       -0.0009
      5  C3         4.9770    0.1530   -0.7120 C.ar    1  UNL1       -0.0528
      6  C4         4.1830   -0.6530   -1.4920 C.ar    1  UNL1       -0.0594
      7  C5         2.8470   -0.7920   -1.1180 C.ar    1  UNL1       -0.0408
      8  C6         2.3360   -0.1450   -0.0100 C.ar    1  UNL1        0.0280
      9  N1         0.9370   -0.2400    0.3090 N.pl3   1  UNL1       -0.3396
     10  C7        -0.0760    0.1810   -0.6950 C.3     1  UNL1        0.0384
     11  C8        -1.3690   -0.3830   -0.2800 C.ar    1  UNL1        0.0186
     12  C9        -1.3850   -1.8030   -0.3000 C.ar    1  UNL1        0.1221
     13  O3        -0.1550   -2.4100   -0.5970 O.3     1  UNL1       -0.5064
     14  C10       -2.5430   -2.4590   -0.0420 C.ar    1  UNL1       -0.0193
     15  C11       -3.7500   -1.8360    0.2430 C.ar    1  UNL1       -0.0506
     16  C12       -3.7460   -0.4320    0.2640 C.ar    1  UNL1       -0.0173
     17  C13       -4.9340    0.2390    0.5130 C.ar    1  UNL1       -0.0540
     18  C14       -4.9420    1.6280    0.5060 C.ar    1  UNL1       -0.0612
     19  C15       -3.7680    2.2980    0.2480 C.ar    1  UNL1       -0.0612
     20  C16       -2.5760    1.6290   -0.0060 C.ar    1  UNL1       -0.0536
     21  C17       -2.5510    0.2450    0.0010 C.ar    1  UNL1       -0.0097
     22  C18        3.1600    0.6540    0.7570 C.ar    1  UNL1       -0.0320
     23 H           5.9696    0.2734   -0.9677 H       1  UNL1        0.0624
     24 H           4.5607   -1.1364   -2.3219 H       1  UNL1        0.0618
     25 H           2.2255   -1.3923   -1.6823 H       1  UNL1        0.0636
     26 H           0.6515   -0.5818    1.1870 H       1  UNL1        0.1464
     27 H           0.1914   -0.1907   -1.6621 H       1  UNL1        0.0512
     28 H          -0.1305    1.2481   -0.7514 H       1  UNL1        0.0512
     29 H           0.6003   -1.8811   -0.7635 H       1  UNL1        0.2921
     30 H          -2.5259   -3.4907   -0.0586 H       1  UNL1        0.0654
     31 H          -4.6081   -2.3779    0.4302 H       1  UNL1        0.0625
     32 H          -5.8015   -0.2873    0.7012 H       1  UNL1        0.0624
     33 H          -5.8136    2.1487    0.6911 H       1  UNL1        0.0618
     34 H          -3.7725    3.3300    0.2429 H       1  UNL1        0.0618
     35 H          -1.7136    2.1619   -0.1989 H       1  UNL1        0.0624
     36 H           2.7862    1.1347    1.5902 H       1  UNL1        0.0642
@<TRIPOS>UNITY_ATOM_ATTR
3 1
charge -1
@<TRIPOS>BOND
     1     1     2   ar
     2     2     3   ar
     3     2     4    1
     4     4     5   ar
     5     4    22   ar
     6     5     6   ar
     7     6     7   ar
     8     7     8   ar
     9     8     9    1
    10     8    22   ar
    11     9    10    1
    12    10    11    1
    13    11    12   ar
    14    11    21   ar
    15    12    13    1
    16    12    14   ar
    17    14    15   ar
    18    15    16   ar
    19    16    17   ar
    20    16    21   ar
    21    17    18   ar
    22    18    19   ar
    23    19    20   ar
    24    20    21   ar
    25     5    23    1
    26     6    24    1
    27     7    25    1
    28     9    26    1
    29    10    27    1
    30    10    28    1
    31    13    29    1
    32    14    30    1
    33    15    31    1
    34    17    32    1
    35    18    33    1
    36    19    34    1
    37    20    35    1
    38    22    36    1
@<TRIPOS>MOLECULE
../data/bude_mols_rdkit_confs_charged/molecule_48.pdb
 36 38 0 0 0
SMALL
GASTEIGER

@<TRIPOS>ATOM
      1  O1         5.1280    2.6300    1.2250 O.co2   1  UNL1       -0.5446
      2  C1         5.5670    1.5560    0.7430 C.2     1  UNL1        0.0717
      3  O2         6.9020    1.3170    0.6070 O.co2   1  UNL1       -0.5446
      4  C2         4.5950    0.5630    0.3330 C.ar    1  UNL1       -0.0009
      5  C3         5.0120   -0.6110   -0.2400 C.ar    1  UNL1       -0.0528
      6  C4         4.0710   -1.5610   -0.6490 C.ar    1  UNL1       -0.0594
      7  C5         2.7250   -1.3400   -0.4870 C.ar    1  UNL1       -0.0408
      8  C6         2.2720   -0.1790    0.0820 C.ar    1  UNL1        0.0280
      9  N1         0.9000    0.1720    0.2230 N.pl3   1  UNL1       -0.3396
     10  C7        -0.0710   -0.3240   -0.7460 C.3     1  UNL1        0.0384
     11  C8        -1.3790    0.2650   -0.4380 C.ar    1  UNL1        0.0186
     12  C9        -1.4640    1.6450   -0.4080 C.ar    1  UNL1        0.1221
     13  O3        -0.2760    2.3870   -0.6060 O.3     1  UNL1       -0.5064
     14  C10       -2.6520    2.2910   -0.1870 C.ar    1  UNL1       -0.0193
     15  C11       -3.8120    1.5800    0.0140 C.ar    1  UNL1       -0.0506
     16  C12       -3.7460    0.1900   -0.0130 C.ar    1  UNL1       -0.0173
     17  C13       -4.9040   -0.5610    0.1590 C.ar    1  UNL1       -0.0540
     18  C14       -4.9170   -1.9450    0.1170 C.ar    1  UNL1       -0.0612
     19  C15       -3.7080   -2.5420   -0.1090 C.ar    1  UNL1       -0.0612
     20  C16       -2.5170   -1.8450   -0.2860 C.ar    1  UNL1       -0.0536
     21  C17       -2.5340   -0.4720   -0.2360 C.ar    1  UNL1       -0.0097
     22  C18        3.2420    0.7580    0.4810 C.ar    1  UNL1       -0.0320
     23 H           6.0195   -0.7932   -0.3693 H       1  UNL1        0.0624
     24 H           4.3928   -2.4420   -1.0793 H       1  UNL1        0.0618
     25 H           2.0486   -2.0552   -0.7968 H       1  UNL1        0.0636
     26 H           0.6086    0.7450    0.9686 H       1  UNL1        0.1464
     27 H          -0.1315   -1.3904   -0.6828 H       1  UNL1        0.0512
     28 H           0.2288   -0.0531   -1.7368 H       1  UNL1        0.0512
     29 H           0.5347    1.9420   -0.7569 H       1  UNL1        0.2921
     30 H          -2.6766    3.3226   -0.1712 H       1  UNL1        0.0654
     31 H          -4.7079    2.0644    0.1805 H       1  UNL1        0.0625
     32 H          -5.7933   -0.0645    0.3254 H       1  UNL1        0.0624
     33 H          -5.7832   -2.4905    0.2478 H       1  UNL1        0.0618
     34 H          -3.6769   -3.5727   -0.1509 H       1  UNL1        0.0618
     35 H          -1.6336   -2.3519   -0.4524 H       1  UNL1        0.0624
     36 H           2.9205    1.6406    0.9084 H       1  UNL1        0.0642
@<TRIPOS>UNITY_ATOM_ATTR
3 1
charge -1
@<TRIPOS>BOND
     1     1     2   ar
     2     2     3   ar
     3     2     4    1
     4     4     5   ar
     5     4    22   ar
     6     5     6   ar
     7     6     7   ar
     8     7     8   ar
     9     8     9    1
    10     8    22   ar
    11     9    10    1
    12    10    11    1
    13    11    12   ar
    14    11    21   ar
    15    12    13    1
    16    12    14   ar
    17    14    15   ar
    18    15    16   ar
    19    16    17   ar
    20    16    21   ar
    21    17    18   ar
    22    18    19   ar
    23    19    20   ar
    24    20    21   ar
    25     5    23    1
    26     6    24    1
    27     7    25    1
    28     9    26    1
    29    10    27    1
    30    10    28    1
    31    13    29    1
    32    14    30    1
    33    15    31    1
    34    17    32    1
    35    18    33    1
    36    19    34    1
    37    20    35    1
    38    22    36    1
@<TRIPOS>MOLECULE
../data/bude_mols_rdkit_confs_charged/molecule_48.pdb
 36 38 0 0 0
SMALL
GASTEIGER

@<TRIPOS>ATOM
      1  O1         6.3980   -1.7420   -0.0860 O.co2   1  UNL1       -0.5446
      2  C1         5.1690   -1.8990    0.1180 C.2     1  UNL1        0.0717
      3  O2         4.5580   -3.1310    0.3400 O.co2   1  UNL1       -0.5446
      4  C2         4.3190   -0.6950    0.1220 C.ar    1  UNL1       -0.0009
      5  C3         4.8960    0.5530    0.1050 C.ar    1  UNL1       -0.0528
      6  C4         4.0710    1.6470    0.1440 C.ar    1  UNL1       -0.0594
      7  C5         2.7050    1.5210    0.2000 C.ar    1  UNL1       -0.0408
      8  C6         2.1740    0.2450    0.2110 C.ar    1  UNL1        0.0280
      9  N1         0.7390    0.1470    0.1190 N.pl3   1  UNL1       -0.3396
     10  C7        -0.1390    0.3810    1.1780 C.3     1  UNL1        0.0384
     11  C8        -1.5480    0.6580    0.7170 C.ar    1  UNL1        0.0186
     12  C9        -2.1080    1.8820    1.1630 C.ar    1  UNL1        0.1221
     13  O3        -1.3770    2.8140    1.8670 O.3     1  UNL1       -0.5064
     14  C10       -3.4520    2.1050    0.8410 C.ar    1  UNL1       -0.0193
     15  C11       -4.1570    1.1640    0.1370 C.ar    1  UNL1       -0.0506
     16  C12       -3.6140   -0.0250   -0.2990 C.ar    1  UNL1       -0.0173
     17  C13       -4.3590   -0.9400   -1.0200 C.ar    1  UNL1       -0.0540
     18  C14       -3.8430   -2.1560   -1.4660 C.ar    1  UNL1       -0.0612
     19  C15       -2.5200   -2.3860   -1.1510 C.ar    1  UNL1       -0.0612
     20  C16       -1.7590   -1.4600   -0.4280 C.ar    1  UNL1       -0.0536
     21  C17       -2.2710   -0.2650    0.0080 C.ar    1  UNL1       -0.0097
     22  C18        2.9530   -0.8750    0.1740 C.ar    1  UNL1       -0.0320
     23 H           5.9213    0.6629    0.0640 H       1  UNL1        0.0624
     24 H           4.4880    2.5909    0.1309 H       1  UNL1        0.0618
     25 H           2.0944    2.3523    0.2328 H       1  UNL1        0.0636
     26 H           0.3515   -0.1022   -0.7510 H       1  UNL1        0.1464
     27 H           0.2118    1.2260    1.7329 H       1  UNL1        0.0512
     28 H          -0.1640   -0.5045    1.7781 H       1  UNL1        0.0512
     29 H          -0.4784    2.6463    2.0729 H       1  UNL1        0.2921
     30 H          -3.9131    2.9803    1.1345 H       1  UNL1        0.0654
     31 H          -5.1478    1.3562   -0.0782 H       1  UNL1        0.0625
     32 H          -5.3417   -0.7124   -1.2379 H       1  UNL1        0.0624
     33 H          -4.4111   -2.8363   -1.9947 H       1  UNL1        0.0618
     34 H          -2.0781   -3.2668   -1.4574 H       1  UNL1        0.0618
     35 H          -0.7747   -1.6853   -0.2149 H       1  UNL1        0.0624
     36 H           2.5362   -1.8190    0.1845 H       1  UNL1        0.0642
@<TRIPOS>UNITY_ATOM_ATTR
3 1
charge -1
@<TRIPOS>BOND
     1     1     2   ar
     2     2     3   ar
     3     2     4    1
     4     4     5   ar
     5     4    22   ar
     6     5     6   ar
     7     6     7   ar
     8     7     8   ar
     9     8     9    1
    10     8    22   ar
    11     9    10    1
    12    10    11    1
    13    11    12   ar
    14    11    21   ar
    15    12    13    1
    16    12    14   ar
    17    14    15   ar
    18    15    16   ar
    19    16    17   ar
    20    16    21   ar
    21    17    18   ar
    22    18    19   ar
    23    19    20   ar
    24    20    21   ar
    25     5    23    1
    26     6    24    1
    27     7    25    1
    28     9    26    1
    29    10    27    1
    30    10    28    1
    31    13    29    1
    32    14    30    1
    33    15    31    1
    34    17    32    1
    35    18    33    1
    36    19    34    1
    37    20    35    1
    38    22    36    1
@<TRIPOS>MOLECULE
../data/bude_mols_rdkit_confs_charged/molecule_48.pdb
 36 38 0 0 0
SMALL
GASTEIGER

@<TRIPOS>ATOM
      1  O1        -4.1360    2.4590    1.4430 O.co2   1  UNL1       -0.5446
      2  C1        -4.6880    1.6690    0.6700 C.2     1  UNL1        0.0717
      3  O2        -6.0680    1.8480    0.4030 O.co2   1  UNL1       -0.5446
      4  C2        -4.0030    0.5720    0.0080 C.ar    1  UNL1       -0.0009
      5  C3        -4.8250   -0.4010   -0.6070 C.ar    1  UNL1       -0.0528
      6  C4        -4.1840   -1.5010   -1.1530 C.ar    1  UNL1       -0.0594
      7  C5        -2.7750   -1.6310   -1.0980 C.ar    1  UNL1       -0.0408
      8  C6        -1.9610   -0.7090   -0.5200 C.ar    1  UNL1        0.0280
      9  N1        -0.5690   -0.6950   -0.4150 N.pl3   1  UNL1       -0.3396
     10  C7         0.3070   -1.4840    0.4910 C.3     1  UNL1        0.0384
     11  C8         1.3920   -0.5130    0.7540 C.ar    1  UNL1        0.0186
     12  C9         1.3700    0.0510    2.0060 C.ar    1  UNL1        0.1221
     13  O3         0.4530   -0.3890    2.9370 O.3     1  UNL1       -0.5064
     14  C10        2.2590    1.0590    2.3210 C.ar    1  UNL1       -0.0193
     15  C11        3.1580    1.4830    1.3730 C.ar    1  UNL1       -0.0506
     16  C12        3.1900    0.9330    0.1560 C.ar    1  UNL1       -0.0173
     17  C13        4.1920    1.2720   -0.7630 C.ar    1  UNL1       -0.0540
     18  C14        4.2960    0.6190   -1.9430 C.ar    1  UNL1       -0.0612
     19  C15        3.4000   -0.3970   -2.2620 C.ar    1  UNL1       -0.0612
     20  C16        2.4040   -0.7440   -1.3780 C.ar    1  UNL1       -0.0536
     21  C17        2.2780   -0.1080   -0.1790 C.ar    1  UNL1       -0.0097
     22  C18       -2.6420    0.4070    0.0350 C.ar    1  UNL1       -0.0320
     23 H          -5.8509   -0.2967   -0.6470 H       1  UNL1        0.0624
     24 H          -4.7435   -2.2391   -1.6081 H       1  UNL1        0.0618
     25 H          -2.3441   -2.4691   -1.5185 H       1  UNL1        0.0636
     26 H          -0.1034   -0.0779   -1.0246 H       1  UNL1        0.1464
     27 H           0.6769   -2.3654    0.0101 H       1  UNL1        0.0512
     28 H          -0.1822   -1.8467    1.3708 H       1  UNL1        0.0512
     29 H          -0.1473   -1.0736    2.7160 H       1  UNL1        0.2921
     30 H           2.2483    1.4895    3.2589 H       1  UNL1        0.0654
     31 H           3.8203    2.2397    1.6049 H       1  UNL1        0.0625
     32 H           4.8575    2.0277   -0.5372 H       1  UNL1        0.0624
     33 H           5.0419    0.8749   -2.6087 H       1  UNL1        0.0618
     34 H           3.4827   -0.8916   -3.1640 H       1  UNL1        0.0618
     35 H           1.7430   -1.4966   -1.6264 H       1  UNL1        0.0624
     36 H          -2.0758    1.1413    0.4880 H       1  UNL1        0.0642
@<TRIPOS>UNITY_ATOM_ATTR
3 1
charge -1
@<TRIPOS>BOND
     1     1     2   ar
     2     2     3   ar
     3     2     4    1
     4     4     5   ar
     5     4    22   ar
     6     5     6   ar
     7     6     7   ar
     8     7     8   ar
     9     8     9    1
    10     8    22   ar
    11     9    10    1
    12    10    11    1
    13    11    12   ar
    14    11    21   ar
    15    12    13    1
    16    12    14   ar
    17    14    15   ar
    18    15    16   ar
    19    16    17   ar
    20    16    21   ar
    21    17    18   ar
    22    18    19   ar
    23    19    20   ar
    24    20    21   ar
    25     5    23    1
    26     6    24    1
    27     7    25    1
    28     9    26    1
    29    10    27    1
    30    10    28    1
    31    13    29    1
    32    14    30    1
    33    15    31    1
    34    17    32    1
    35    18    33    1
    36    19    34    1
    37    20    35    1
    38    22    36    1
@<TRIPOS>MOLECULE
../data/bude_mols_rdkit_confs_charged/molecule_48.pdb
 36 38 0 0 0
SMALL
GASTEIGER

@<TRIPOS>ATOM
      1  O1         6.2720    2.0570    1.1660 O.co2   1  UNL1       -0.5446
      2  C1         5.0160    2.0350    1.1180 C.2     1  UNL1        0.0717
      3  O2         4.2900    3.0660    1.6330 O.co2   1  UNL1       -0.5446
      4  C2         4.3200    0.9410    0.5160 C.ar    1  UNL1       -0.0009
      5  C3         4.9200   -0.2170    0.0330 C.ar    1  UNL1       -0.0528
      6  C4         4.1460   -1.1790   -0.5660 C.ar    1  UNL1       -0.0594
      7  C5         2.7940   -1.1200   -0.7530 C.ar    1  UNL1       -0.0408
      8  C6         2.1590    0.0310   -0.2610 C.ar    1  UNL1        0.0280
      9  N1         0.7860    0.2040   -0.3280 N.pl3   1  UNL1       -0.3396
     10  C7        -0.1280   -0.3610   -1.3040 C.3     1  UNL1        0.0384
     11  C8        -1.3880   -0.6790   -0.5460 C.ar    1  UNL1        0.0186
     12  C9        -1.6460   -2.0690   -0.3360 C.ar    1  UNL1        0.1221
     13  O3        -0.6490   -2.9190   -0.8060 O.3     1  UNL1       -0.5064
     14  C10       -2.7990   -2.5010    0.2850 C.ar    1  UNL1       -0.0193
     15  C11       -3.7330   -1.5850    0.7140 C.ar    1  UNL1       -0.0506
     16  C12       -3.5090   -0.2430    0.5180 C.ar    1  UNL1       -0.0173
     17  C13       -4.4640    0.6700    0.8910 C.ar    1  UNL1       -0.0540
     18  C14       -4.3020    1.9710    0.6430 C.ar    1  UNL1       -0.0612
     19  C15       -3.1530    2.4590    0.0040 C.ar    1  UNL1       -0.0612
     20  C16       -2.1570    1.5500   -0.3750 C.ar    1  UNL1       -0.0536
     21  C17       -2.3130    0.2020   -0.1230 C.ar    1  UNL1       -0.0097
     22  C18        2.9220    0.9880    0.3260 C.ar    1  UNL1       -0.0320
     23 H           5.9391   -0.3518    0.1243 H       1  UNL1        0.0624
     24 H           4.6297   -2.0247   -0.9065 H       1  UNL1        0.0618
     25 H           2.2724   -1.8743   -1.2263 H       1  UNL1        0.0636
     26 H           0.3843    0.7755    0.3657 H       1  UNL1        0.1464
     27 H           0.2853   -1.2510   -1.7306 H       1  UNL1        0.0512
     28 H          -0.3131    0.3173   -2.1105 H       1  UNL1        0.0512
     29 H           0.1128   -2.5637   -1.2201 H       1  UNL1        0.2921
     30 H          -2.9616   -3.5100    0.4280 H       1  UNL1        0.0654
     31 H          -4.5966   -1.9042    1.1802 H       1  UNL1        0.0625
     32 H          -5.3188    0.3457    1.3697 H       1  UNL1        0.0624
     33 H          -5.0398    2.6339    0.9282 H       1  UNL1        0.0618
     34 H          -3.0435    3.4679   -0.1833 H       1  UNL1        0.0618
     35 H          -1.3031    1.8896   -0.8446 H       1  UNL1        0.0624
     36 H           2.4331    1.8309    0.6660 H       1  UNL1        0.0642
@<TRIPOS>UNITY_ATOM_ATTR
3 1
charge -1
@<TRIPOS>BOND
     1     1     2   ar
     2     2     3   ar
     3     2     4    1
     4     4     5   ar
     5     4    22   ar
     6     5     6   ar
     7     6     7   ar
     8     7     8   ar
     9     8     9    1
    10     8    22   ar
    11     9    10    1
    12    10    11    1
    13    11    12   ar
    14    11    21   ar
    15    12    13    1
    16    12    14   ar
    17    14    15   ar
    18    15    16   ar
    19    16    17   ar
    20    16    21   ar
    21    17    18   ar
    22    18    19   ar
    23    19    20   ar
    24    20    21   ar
    25     5    23    1
    26     6    24    1
    27     7    25    1
    28     9    26    1
    29    10    27    1
    30    10    28    1
    31    13    29    1
    32    14    30    1
    33    15    31    1
    34    17    32    1
    35    18    33    1
    36    19    34    1
    37    20    35    1
    38    22    36    1
@<TRIPOS>MOLECULE
../data/bude_mols_rdkit_confs_charged/molecule_48.pdb
 36 38 0 0 0
SMALL
GASTEIGER

@<TRIPOS>ATOM
      1  O1         5.2700   -1.1260   -3.1280 O.co2   1  UNL1       -0.5446
      2  C1         4.4890   -0.2410   -2.6940 C.2     1  UNL1        0.0717
      3  O2         4.4860    0.9720   -3.3490 O.co2   1  UNL1       -0.5446
      4  C2         3.6240   -0.4860   -1.5440 C.ar    1  UNL1       -0.0009
      5  C3         3.6040   -1.6790   -0.8740 C.ar    1  UNL1       -0.0528
      6  C4         2.7490   -1.8460    0.2220 C.ar    1  UNL1       -0.0594
      7  C5         1.9290   -0.8150    0.6250 C.ar    1  UNL1       -0.0408
      8  C6         1.9480    0.3800   -0.0450 C.ar    1  UNL1        0.0280
      9  N1         1.1150    1.4970    0.3270 N.pl3   1  UNL1       -0.3396
     10  C7         0.2620    1.3930    1.4250 C.3     1  UNL1        0.0384
     11  C8        -1.0590    0.7770    1.4140 C.ar    1  UNL1        0.0186
     12  C9        -1.6910    0.6730    2.6990 C.ar    1  UNL1        0.1221
     13  O3        -1.0190    1.1390    3.8040 O.3     1  UNL1       -0.5064
     14  C10       -2.9240    0.1310    2.8460 C.ar    1  UNL1       -0.0193
     15  C11       -3.6160   -0.3380    1.7790 C.ar    1  UNL1       -0.0506
     16  C12       -3.0640   -0.2670    0.5060 C.ar    1  UNL1       -0.0173
     17  C13       -3.7890   -0.7200   -0.5730 C.ar    1  UNL1       -0.0540
     18  C14       -3.2920   -0.6360   -1.8370 C.ar    1  UNL1       -0.0612
     19  C15       -2.0480   -0.0830   -1.9810 C.ar    1  UNL1       -0.0612
     20  C16       -1.2990    0.3810   -0.8990 C.ar    1  UNL1       -0.0536
     21  C17       -1.7840    0.3000    0.3730 C.ar    1  UNL1       -0.0097
     22  C18        2.7910    0.5350   -1.1210 C.ar    1  UNL1       -0.0320
     23 H           4.2168   -2.4527   -1.1755 H       1  UNL1        0.0624
     24 H           2.7330   -2.7444    0.7296 H       1  UNL1        0.0618
     25 H           1.2995   -0.9429    1.4327 H       1  UNL1        0.0636
     26 H           1.1486    2.3319   -0.1937 H       1  UNL1        0.1464
     27 H           0.1030    2.3980    1.7561 H       1  UNL1        0.0512
     28 H           0.7983    0.6775    2.0127 H       1  UNL1        0.0512
     29 H          -0.1660    1.5150    3.7095 H       1  UNL1        0.2921
     30 H          -3.3438    0.0742    3.7871 H       1  UNL1        0.0654
     31 H          -4.5536   -0.7481    1.9123 H       1  UNL1        0.0625
     32 H          -4.7239   -1.1297   -0.4209 H       1  UNL1        0.0624
     33 H          -3.8290   -0.9741   -2.6508 H       1  UNL1        0.0618
     34 H          -1.6476   -0.0061   -2.9290 H       1  UNL1        0.0618
     35 H          -0.3662    0.7907   -1.0634 H       1  UNL1        0.0624
     36 H           2.8025    1.4352   -1.6254 H       1  UNL1        0.0642
@<TRIPOS>UNITY_ATOM_ATTR
3 1
charge -1
@<TRIPOS>BOND
     1     1     2   ar
     2     2     3   ar
     3     2     4    1
     4     4     5   ar
     5     4    22   ar
     6     5     6   ar
     7     6     7   ar
     8     7     8   ar
     9     8     9    1
    10     8    22   ar
    11     9    10    1
    12    10    11    1
    13    11    12   ar
    14    11    21   ar
    15    12    13    1
    16    12    14   ar
    17    14    15   ar
    18    15    16   ar
    19    16    17   ar
    20    16    21   ar
    21    17    18   ar
    22    18    19   ar
    23    19    20   ar
    24    20    21   ar
    25     5    23    1
    26     6    24    1
    27     7    25    1
    28     9    26    1
    29    10    27    1
    30    10    28    1
    31    13    29    1
    32    14    30    1
    33    15    31    1
    34    17    32    1
    35    18    33    1
    36    19    34    1
    37    20    35    1
    38    22    36    1
@<TRIPOS>MOLECULE
../data/bude_mols_rdkit_confs_charged/molecule_48.pdb
 36 38 0 0 0
SMALL
GASTEIGER

@<TRIPOS>ATOM
      1  O1         5.6650    2.5240    0.6220 O.co2   1  UNL1       -0.5446
      2  C1         4.8530    2.0700   -0.2090 C.2     1  UNL1        0.0717
      3  O2         4.9670    2.4760   -1.5280 O.co2   1  UNL1       -0.5446
      4  C2         3.8020    1.1410    0.1480 C.ar    1  UNL1       -0.0009
      5  C3         3.7140    0.7490    1.4660 C.ar    1  UNL1       -0.0528
      6  C4         2.7220   -0.1330    1.8200 C.ar    1  UNL1       -0.0594
      7  C5         1.8380   -0.6120    0.8730 C.ar    1  UNL1       -0.0408
      8  C6         1.9140   -0.2300   -0.4500 C.ar    1  UNL1        0.0280
      9  N1         0.9790   -0.7350   -1.4420 N.pl3   1  UNL1       -0.3396
     10  C7        -0.0110   -1.6240   -1.0730 C.3     1  UNL1        0.0384
     11  C8        -1.3070   -1.2890   -0.5150 C.ar    1  UNL1        0.0186
     12  C9        -2.1360   -2.3820   -0.1290 C.ar    1  UNL1        0.1221
     13  O3        -1.6670   -3.6500   -0.3360 O.3     1  UNL1       -0.5064
     14  C10       -3.3730   -2.1800    0.4320 C.ar    1  UNL1       -0.0193
     15  C11       -3.8880   -0.9390    0.6540 C.ar    1  UNL1       -0.0506
     16  C12       -3.1140    0.1370    0.2890 C.ar    1  UNL1       -0.0173
     17  C13       -3.6710    1.3810    0.4970 C.ar    1  UNL1       -0.0540
     18  C14       -2.9630    2.5030    0.1260 C.ar    1  UNL1       -0.0612
     19  C15       -1.6980    2.3460   -0.4540 C.ar    1  UNL1       -0.0612
     20  C16       -1.1520    1.0950   -0.6570 C.ar    1  UNL1       -0.0536
     21  C17       -1.8420   -0.0470   -0.2880 C.ar    1  UNL1       -0.0097
     22  C18        2.9060    0.6530   -0.8040 C.ar    1  UNL1       -0.0320
     23 H           4.3771    1.1092    2.1700 H       1  UNL1        0.0624
     24 H           2.6366   -0.4402    2.8015 H       1  UNL1        0.0618
     25 H           1.1009   -1.2734    1.1632 H       1  UNL1        0.0636
     26 H           1.0518   -0.4424   -2.3792 H       1  UNL1        0.1464
     27 H           0.4466   -2.2646   -0.3483 H       1  UNL1        0.0512
     28 H          -0.3168   -1.9605   -2.0416 H       1  UNL1        0.0512
     29 H          -0.8219   -3.7802   -0.7193 H       1  UNL1        0.2921
     30 H          -3.9361   -3.0034    0.6965 H       1  UNL1        0.0654
     31 H          -4.8201   -0.8116    1.0784 H       1  UNL1        0.0625
     32 H          -4.6058    1.4704    0.9249 H       1  UNL1        0.0624
     33 H          -3.3587    3.4447    0.2732 H       1  UNL1        0.0618
     34 H          -1.1634    3.1827   -0.7353 H       1  UNL1        0.0618
     35 H          -0.2186    1.0098   -1.0889 H       1  UNL1        0.0624
     36 H           2.9892    0.9589   -1.7861 H       1  UNL1        0.0642
@<TRIPOS>UNITY_ATOM_ATTR
3 1
charge -1
@<TRIPOS>BOND
     1     1     2   ar
     2     2     3   ar
     3     2     4    1
     4     4     5   ar
     5     4    22   ar
     6     5     6   ar
     7     6     7   ar
     8     7     8   ar
     9     8     9    1
    10     8    22   ar
    11     9    10    1
    12    10    11    1
    13    11    12   ar
    14    11    21   ar
    15    12    13    1
    16    12    14   ar
    17    14    15   ar
    18    15    16   ar
    19    16    17   ar
    20    16    21   ar
    21    17    18   ar
    22    18    19   ar
    23    19    20   ar
    24    20    21   ar
    25     5    23    1
    26     6    24    1
    27     7    25    1
    28     9    26    1
    29    10    27    1
    30    10    28    1
    31    13    29    1
    32    14    30    1
    33    15    31    1
    34    17    32    1
    35    18    33    1
    36    19    34    1
    37    20    35    1
    38    22    36    1
