@<TRIPOS>MOLECULE
../data/bude_mols_rdkit_confs_charged/molecule_49.pdb
 33 34 0 0 0
SMALL
GASTEIGER

@<TRIPOS>ATOM
      1 O          -5.6290    0.1120    1.7830 O.2     1  UNL1       -0.2451
      2 C          -4.4620   -0.2650    1.5710 C.2     1  UNL1        0.3370
      3 O          -4.0630   -1.4970    2.0440 O.3     1  UNL1       -0.4771
      4 C          -3.5090    0.5550    0.8390 C.ar    1  UNL1        0.0640
      5 C          -3.8920    1.8000    0.3540 C.ar    1  UNL1       -0.0061
      6 C          -3.0200    2.5920   -0.3370 C.ar    1  UNL1        0.1194
      7 O          -3.4190    3.8440   -0.8200 O.3     1  UNL1       -0.5067
      8 C          -1.7320    2.2000   -0.5830 C.ar    1  UNL1        0.0007
      9 C          -1.3490    0.9480   -0.0950 C.ar    1  UNL1        0.0316
     10 N          -0.0250    0.4710   -0.3110 N.pl3   1  UNL1       -0.3396
     11 C           0.3990   -0.8200    0.1830 C.3     1  UNL1        0.0346
     12 C           1.8160   -1.0430   -0.1910 C.ar    1  UNL1       -0.0240
     13 C           2.1540   -1.6520   -1.3850 C.ar    1  UNL1       -0.0567
     14 C           3.4730   -1.8610   -1.7340 C.ar    1  UNL1       -0.0550
     15 C           4.4960   -1.4690   -0.9050 C.ar    1  UNL1        0.0156
     16 C           4.1800   -0.8560    0.2960 C.ar    1  UNL1        0.2735
     17 N           5.2040   -0.4310    1.1930 N.pl3   1  UNL1        0.0796
     18 O           6.3790   -0.6090    0.8970 O.2     1  UNL1        0.0414
     19 O           4.8670    0.1730    2.3750 O.co2   1  UNL1       -0.5760
     20 C           2.8380   -0.6530    0.6350 C.ar    1  UNL1        0.0202
     21 C          -2.2160    0.1500    0.5970 C.ar    1  UNL1       -0.0266
     22 H          -3.1879   -1.7958    1.8930 H       1  UNL1        0.2954
     23 H          -4.8548    2.1326    0.5194 H       1  UNL1        0.0662
     24 H          -4.2932    4.1467   -0.6712 H       1  UNL1        0.2921
     25 H          -1.0746    2.8008   -1.1044 H       1  UNL1        0.0672
     26 H           0.6147    1.0316   -0.8067 H       1  UNL1        0.1464
     27 H          -0.2101   -1.5863   -0.2491 H       1  UNL1        0.0511
     28 H           0.2994   -0.8481    1.2480 H       1  UNL1        0.0511
     29 H           1.4060   -1.9562   -2.0277 H       1  UNL1        0.0621
     30 H           3.6942   -2.3190   -2.6319 H       1  UNL1        0.0620
     31 H           5.4801   -1.6281   -1.1718 H       1  UNL1        0.0685
     32 H           2.6110   -0.1967    1.5324 H       1  UNL1        0.0688
     33 H          -1.8970   -0.7686    0.9428 H       1  UNL1        0.0644
@<TRIPOS>UNITY_ATOM_ATTR
17 1
charge 1
19 1
charge -1
@<TRIPOS>BOND
     1     1     2    2
     2     2     3    1
     3     2     4    1
     4     4     5   ar
     5     4    21   ar
     6     5     6   ar
     7     6     7    1
     8     6     8   ar
     9     8     9   ar
    10     9    10    1
    11     9    21   ar
    12    10    11    1
    13    11    12    1
    14    12    13   ar
    15    12    20   ar
    16    13    14   ar
    17    14    15   ar
    18    15    16   ar
    19    16    17    1
    20    16    20   ar
    21    17    18    2
    22    17    19    1
    23     3    22    1
    24     5    23    1
    25     7    24    1
    26     8    25    1
    27    10    26    1
    28    11    27    1
    29    11    28    1
    30    13    29    1
    31    14    30    1
    32    15    31    1
    33    20    32    1
    34    21    33    1
@<TRIPOS>MOLECULE
../data/bude_mols_rdkit_confs_charged/molecule_49.pdb
 33 34 0 0 0
SMALL
GASTEIGER

@<TRIPOS>ATOM
      1 O          -3.5500   -0.5070    3.6020 O.2     1  UNL1       -0.2451
      2 C          -3.5980   -1.1340    2.5170 C.2     1  UNL1        0.3370
      3 O          -4.4590   -2.2100    2.4270 O.3     1  UNL1       -0.4771
      4 C          -2.7470   -0.6900    1.4310 C.ar    1  UNL1        0.0640
      5 C          -2.7540   -1.3360    0.2140 C.ar    1  UNL1       -0.0061
      6 C          -1.9520   -0.9250   -0.8260 C.ar    1  UNL1        0.1194
      7 O          -1.9970   -1.6120   -2.0320 O.3     1  UNL1       -0.5067
      8 C          -1.1240    0.1710   -0.6190 C.ar    1  UNL1        0.0007
      9 C          -1.0840    0.8500    0.5850 C.ar    1  UNL1        0.0316
     10 N          -0.2260    1.9690    0.7740 N.pl3   1  UNL1       -0.3396
     11 C           0.6880    2.4280   -0.2350 C.3     1  UNL1        0.0346
     12 C           1.7240    1.4280   -0.5940 C.ar    1  UNL1       -0.0240
     13 C           2.5370    1.6350   -1.6660 C.ar    1  UNL1       -0.0567
     14 C           3.4950    0.6870   -1.9710 C.ar    1  UNL1       -0.0550
     15 C           3.6470   -0.4560   -1.2210 C.ar    1  UNL1        0.0156
     16 C           2.8400   -0.6820   -0.1410 C.ar    1  UNL1        0.2735
     17 N           2.9580   -1.8380    0.6560 N.pl3   1  UNL1        0.0796
     18 O           3.8310   -2.6740    0.3570 O.2     1  UNL1        0.0414
     19 O           2.1410   -2.0500    1.7380 O.co2   1  UNL1       -0.5760
     20 C           1.8760    0.2850    0.1560 C.ar    1  UNL1        0.0202
     21 C          -1.9130    0.3910    1.5930 C.ar    1  UNL1       -0.0266
     22 H          -4.5170   -2.6981    1.6293 H       1  UNL1        0.2954
     23 H          -3.3761   -2.1483    0.0790 H       1  UNL1        0.0662
     24 H          -2.5696   -2.3470   -2.1314 H       1  UNL1        0.2921
     25 H          -0.5175    0.4897   -1.3908 H       1  UNL1        0.0672
     26 H          -0.2600    2.4493    1.6327 H       1  UNL1        0.1464
     27 H           1.1776    3.3081    0.1265 H       1  UNL1        0.0511
     28 H           0.1135    2.6169   -1.1177 H       1  UNL1        0.0511
     29 H           2.4395    2.4860   -2.2415 H       1  UNL1        0.0621
     30 H           4.1129    0.8407   -2.7832 H       1  UNL1        0.0620
     31 H           4.3724   -1.1449   -1.4744 H       1  UNL1        0.0685
     32 H           1.2557    0.1363    0.9673 H       1  UNL1        0.0688
     33 H          -1.9051    0.8792    2.5022 H       1  UNL1        0.0644
@<TRIPOS>UNITY_ATOM_ATTR
17 1
charge 1
19 1
charge -1
@<TRIPOS>BOND
     1     1     2    2
     2     2     3    1
     3     2     4    1
     4     4     5   ar
     5     4    21   ar
     6     5     6   ar
     7     6     7    1
     8     6     8   ar
     9     8     9   ar
    10     9    10    1
    11     9    21   ar
    12    10    11    1
    13    11    12    1
    14    12    13   ar
    15    12    20   ar
    16    13    14   ar
    17    14    15   ar
    18    15    16   ar
    19    16    17    1
    20    16    20   ar
    21    17    18    2
    22    17    19    1
    23     3    22    1
    24     5    23    1
    25     7    24    1
    26     8    25    1
    27    10    26    1
    28    11    27    1
    29    11    28    1
    30    13    29    1
    31    14    30    1
    32    15    31    1
    33    20    32    1
    34    21    33    1
@<TRIPOS>MOLECULE
../data/bude_mols_rdkit_confs_charged/molecule_49.pdb
 33 34 0 0 0
SMALL
GASTEIGER

@<TRIPOS>ATOM
      1 O          -6.2220   -0.6750   -0.3640 O.2     1  UNL1       -0.2451
      2 C          -5.0630   -1.1430   -0.2570 C.2     1  UNL1        0.3370
      3 O          -4.9400   -2.5240   -0.1540 O.3     1  UNL1       -0.4771
      4 C          -3.9410   -0.2400   -0.2470 C.ar    1  UNL1        0.0640
      5 C          -4.1290    1.1210   -0.3530 C.ar    1  UNL1       -0.0061
      6 C          -3.0490    1.9810   -0.3430 C.ar    1  UNL1        0.1194
      7 O          -3.2830    3.3450   -0.4520 O.3     1  UNL1       -0.5067
      8 C          -1.7820    1.4900   -0.2270 C.ar    1  UNL1        0.0007
      9 C          -1.5630    0.1200   -0.1190 C.ar    1  UNL1        0.0316
     10 N          -0.2380   -0.3930    0.0020 N.pl3   1  UNL1       -0.3396
     11 C           0.8650    0.5120    0.0110 C.3     1  UNL1        0.0346
     12 C           2.1680   -0.1540    0.1160 C.ar    1  UNL1       -0.0240
     13 C           2.3900   -1.4430   -0.3000 C.ar    1  UNL1       -0.0567
     14 C           3.6510   -2.0370   -0.1740 C.ar    1  UNL1       -0.0550
     15 C           4.6790   -1.3150    0.3750 C.ar    1  UNL1        0.0156
     16 C           4.4650   -0.0070    0.8000 C.ar    1  UNL1        0.2735
     17 N           5.5170    0.7620    1.3720 N.pl3   1  UNL1        0.0796
     18 O           6.6410    0.2480    1.4900 O.2     1  UNL1        0.0414
     19 O           5.3550    2.0490    1.8040 O.co2   1  UNL1       -0.5760
     20 C           3.2230    0.5750    0.6750 C.ar    1  UNL1        0.0202
     21 C          -2.6550   -0.7310   -0.1300 C.ar    1  UNL1       -0.0266
     22 H          -4.0920   -2.9140   -0.0724 H       1  UNL1        0.2954
     23 H          -5.0847    1.5004   -0.4406 H       1  UNL1        0.0662
     24 H          -4.1601    3.6650   -0.5309 H       1  UNL1        0.2921
     25 H          -0.9798    2.1392   -0.2193 H       1  UNL1        0.0672
     26 H          -0.0857   -1.3626    0.0786 H       1  UNL1        0.1464
     27 H           0.7542    1.1726    0.8454 H       1  UNL1        0.0511
     28 H           0.8523    1.0328   -0.9236 H       1  UNL1        0.0511
     29 H           1.6138   -1.9835   -0.7128 H       1  UNL1        0.0621
     30 H           3.8051   -3.0071   -0.4906 H       1  UNL1        0.0620
     31 H           5.6133   -1.7421    0.4733 H       1  UNL1        0.0685
     32 H           3.0712    1.5451    0.9925 H       1  UNL1        0.0688
     33 H          -2.5059   -1.7490   -0.0495 H       1  UNL1        0.0644
@<TRIPOS>UNITY_ATOM_ATTR
17 1
charge 1
19 1
charge -1
@<TRIPOS>BOND
     1     1     2    2
     2     2     3    1
     3     2     4    1
     4     4     5   ar
     5     4    21   ar
     6     5     6   ar
     7     6     7    1
     8     6     8   ar
     9     8     9   ar
    10     9    10    1
    11     9    21   ar
    12    10    11    1
    13    11    12    1
    14    12    13   ar
    15    12    20   ar
    16    13    14   ar
    17    14    15   ar
    18    15    16   ar
    19    16    17    1
    20    16    20   ar
    21    17    18    2
    22    17    19    1
    23     3    22    1
    24     5    23    1
    25     7    24    1
    26     8    25    1
    27    10    26    1
    28    11    27    1
    29    11    28    1
    30    13    29    1
    31    14    30    1
    32    15    31    1
    33    20    32    1
    34    21    33    1
@<TRIPOS>MOLECULE
../data/bude_mols_rdkit_confs_charged/molecule_49.pdb
 33 34 0 0 0
SMALL
GASTEIGER

@<TRIPOS>ATOM
      1 O           5.5170   -1.5830    0.7060 O.2     1  UNL1       -0.2451
      2 C           4.2790   -1.5130    0.7610 C.2     1  UNL1        0.3370
      3 O           3.5860   -2.4940    1.4390 O.3     1  UNL1       -0.4771
      4 C           3.5760   -0.4130    0.1180 C.ar    1  UNL1        0.0640
      5 C           4.2830    0.5620   -0.5570 C.ar    1  UNL1       -0.0061
      6 C           3.6350    1.6110   -1.1720 C.ar    1  UNL1        0.1194
      7 O           4.2860    2.6190   -1.8640 O.3     1  UNL1       -0.5067
      8 C           2.2580    1.6680   -1.0980 C.ar    1  UNL1        0.0007
      9 C           1.5200    0.7100   -0.4310 C.ar    1  UNL1        0.0316
     10 N           0.1120    0.7800   -0.3620 N.pl3   1  UNL1       -0.3396
     11 C          -0.5970   -0.2600    0.3550 C.3     1  UNL1        0.0346
     12 C          -2.0610    0.0050    0.3210 C.ar    1  UNL1       -0.0240
     13 C          -2.5560    1.2830    0.3890 C.ar    1  UNL1       -0.0567
     14 C          -3.9220    1.4620    0.3510 C.ar    1  UNL1       -0.0550
     15 C          -4.8060    0.4380    0.2490 C.ar    1  UNL1        0.0156
     16 C          -4.2710   -0.8420    0.1820 C.ar    1  UNL1        0.2735
     17 N          -5.1380   -1.9720    0.0740 N.pl3   1  UNL1        0.0796
     18 O          -4.6900   -3.1280    0.0130 O.2     1  UNL1        0.0414
     19 O          -6.4950   -1.7950    0.0360 O.co2   1  UNL1       -0.5760
     20 C          -2.9140   -1.0580    0.2180 C.ar    1  UNL1        0.0202
     21 C           2.2020   -0.3210    0.1700 C.ar    1  UNL1       -0.0266
     22 H           2.6512   -2.4567    1.4904 H       1  UNL1        0.2954
     23 H           5.3124    0.5042   -0.6016 H       1  UNL1        0.0662
     24 H           5.2204    2.6114   -1.9339 H       1  UNL1        0.2921
     25 H           1.7646    2.4507   -1.5552 H       1  UNL1        0.0672
     26 H          -0.3771    1.5187   -0.7913 H       1  UNL1        0.1464
     27 H          -0.2640   -0.2795    1.3717 H       1  UNL1        0.0511
     28 H          -0.4002   -1.2035   -0.1097 H       1  UNL1        0.0511
     29 H          -1.9198    2.0918    0.4668 H       1  UNL1        0.0621
     30 H          -4.2913    2.4243    0.4028 H       1  UNL1        0.0620
     31 H          -5.8246    0.6018    0.2225 H       1  UNL1        0.0685
     32 H          -2.5408   -2.0188    0.1675 H       1  UNL1        0.0688
     33 H           1.6698   -1.0470    0.6747 H       1  UNL1        0.0644
@<TRIPOS>UNITY_ATOM_ATTR
17 1
charge 1
19 1
charge -1
@<TRIPOS>BOND
     1     1     2    2
     2     2     3    1
     3     2     4    1
     4     4     5   ar
     5     4    21   ar
     6     5     6   ar
     7     6     7    1
     8     6     8   ar
     9     8     9   ar
    10     9    10    1
    11     9    21   ar
    12    10    11    1
    13    11    12    1
    14    12    13   ar
    15    12    20   ar
    16    13    14   ar
    17    14    15   ar
    18    15    16   ar
    19    16    17    1
    20    16    20   ar
    21    17    18    2
    22    17    19    1
    23     3    22    1
    24     5    23    1
    25     7    24    1
    26     8    25    1
    27    10    26    1
    28    11    27    1
    29    11    28    1
    30    13    29    1
    31    14    30    1
    32    15    31    1
    33    20    32    1
    34    21    33    1
@<TRIPOS>MOLECULE
../data/bude_mols_rdkit_confs_charged/molecule_49.pdb
 33 34 0 0 0
SMALL
GASTEIGER

@<TRIPOS>ATOM
      1 O           5.8700    1.9470   -0.2400 O.2     1  UNL1       -0.2451
      2 C           4.6390    2.0050   -0.4910 C.2     1  UNL1        0.3370
      3 O           4.1820    3.0740   -1.2140 O.3     1  UNL1       -0.4771
      4 C           3.7700    0.9410   -0.0050 C.ar    1  UNL1        0.0640
      5 C           4.2750   -0.1170    0.7200 C.ar    1  UNL1       -0.0061
      6 C           3.4490   -1.1370    1.1870 C.ar    1  UNL1        0.1194
      7 O           3.9970   -2.1820    1.9120 O.3     1  UNL1       -0.5067
      8 C           2.0960   -1.0930    0.9220 C.ar    1  UNL1        0.0007
      9 C           1.5670   -0.0390    0.1950 C.ar    1  UNL1        0.0316
     10 N           0.1730   -0.0260   -0.0580 N.pl3   1  UNL1       -0.3396
     11 C          -0.7250   -1.0600    0.4050 C.3     1  UNL1        0.0346
     12 C          -2.1110   -0.7470   -0.0270 C.ar    1  UNL1       -0.0240
     13 C          -2.5750   -1.2190   -1.2570 C.ar    1  UNL1       -0.0567
     14 C          -3.8540   -0.9510   -1.6930 C.ar    1  UNL1       -0.0550
     15 C          -4.7120   -0.2040   -0.9180 C.ar    1  UNL1        0.0156
     16 C          -4.2850    0.2880    0.3220 C.ar    1  UNL1        0.2735
     17 N          -5.1750    1.0590    1.1200 N.pl3   1  UNL1        0.0796
     18 O          -6.3190    1.2990    0.7310 O.2     1  UNL1        0.0414
     19 O          -4.7640    1.5400    2.3260 O.co2   1  UNL1       -0.5760
     20 C          -3.0060   -0.0050    0.7110 C.ar    1  UNL1        0.0202
     21 C           2.4160    0.9480   -0.2480 C.ar    1  UNL1       -0.0266
     22 H           3.2703    3.1465   -1.4177 H       1  UNL1        0.2954
     23 H           5.2865   -0.1543    0.9211 H       1  UNL1        0.0662
     24 H           4.9177   -2.2000    2.0851 H       1  UNL1        0.2921
     25 H           1.4781   -1.8449    1.2652 H       1  UNL1        0.0672
     26 H          -0.2023    0.7236   -0.5742 H       1  UNL1        0.1464
     27 H          -0.6881   -1.1115    1.4731 H       1  UNL1        0.0511
     28 H          -0.4276   -2.0005   -0.0097 H       1  UNL1        0.0511
     29 H          -1.9461   -1.7806   -1.8520 H       1  UNL1        0.0621
     30 H          -4.1708   -1.3125   -2.6062 H       1  UNL1        0.0620
     31 H          -5.6689   -0.0066   -1.2502 H       1  UNL1        0.0685
     32 H          -2.6891    0.3566    1.6242 H       1  UNL1        0.0688
     33 H           2.0182    1.7317   -0.7888 H       1  UNL1        0.0644
@<TRIPOS>UNITY_ATOM_ATTR
17 1
charge 1
19 1
charge -1
@<TRIPOS>BOND
     1     1     2    2
     2     2     3    1
     3     2     4    1
     4     4     5   ar
     5     4    21   ar
     6     5     6   ar
     7     6     7    1
     8     6     8   ar
     9     8     9   ar
    10     9    10    1
    11     9    21   ar
    12    10    11    1
    13    11    12    1
    14    12    13   ar
    15    12    20   ar
    16    13    14   ar
    17    14    15   ar
    18    15    16   ar
    19    16    17    1
    20    16    20   ar
    21    17    18    2
    22    17    19    1
    23     3    22    1
    24     5    23    1
    25     7    24    1
    26     8    25    1
    27    10    26    1
    28    11    27    1
    29    11    28    1
    30    13    29    1
    31    14    30    1
    32    15    31    1
    33    20    32    1
    34    21    33    1
@<TRIPOS>MOLECULE
../data/bude_mols_rdkit_confs_charged/molecule_49.pdb
 33 34 0 0 0
SMALL
GASTEIGER

@<TRIPOS>ATOM
      1 O          -5.5790   -0.8790   -1.8740 O.2     1  UNL1       -0.2451
      2 C          -4.4080   -0.4250   -1.8300 C.2     1  UNL1        0.3370
      3 O          -3.9360    0.4200   -2.8200 O.3     1  UNL1       -0.4771
      4 C          -3.5440   -0.8010   -0.7170 C.ar    1  UNL1        0.0640
      5 C          -4.0030   -1.6440    0.2770 C.ar    1  UNL1       -0.0061
      6 C          -3.2020   -2.0110    1.3370 C.ar    1  UNL1        0.1194
      7 O          -3.7420   -2.8610    2.2910 O.3     1  UNL1       -0.5067
      8 C          -1.9170   -1.5160    1.3910 C.ar    1  UNL1        0.0007
      9 C          -1.4050   -0.6760    0.4340 C.ar    1  UNL1        0.0316
     10 N          -0.0770   -0.1820    0.5160 N.pl3   1  UNL1       -0.3396
     11 C           0.4880    0.7060   -0.4790 C.3     1  UNL1        0.0346
     12 C           1.8850    1.0260   -0.0900 C.ar    1  UNL1       -0.0240
     13 C           2.1840    2.1090    0.7100 C.ar    1  UNL1       -0.0567
     14 C           3.4890    2.4150    1.0780 C.ar    1  UNL1       -0.0550
     15 C           4.4880    1.6110    0.6270 C.ar    1  UNL1        0.0156
     16 C           4.2450    0.5000   -0.1850 C.ar    1  UNL1        0.2735
     17 N           5.3420   -0.2940   -0.6170 N.pl3   1  UNL1        0.0796
     18 O           5.1180   -1.2770   -1.3380 O.2     1  UNL1        0.0414
     19 O           6.6230    0.0280   -0.2410 O.co2   1  UNL1       -0.5760
     20 C           2.9490    0.2540   -0.5100 C.ar    1  UNL1        0.0202
     21 C          -2.2460   -0.3360   -0.6100 C.ar    1  UNL1       -0.0266
     22 H          -3.0607    0.7514   -2.7750 H       1  UNL1        0.2954
     23 H          -4.9676   -2.0071    0.2245 H       1  UNL1        0.0662
     24 H          -4.6234   -3.1661    2.2015 H       1  UNL1        0.2921
     25 H          -1.3149   -1.7882    2.1837 H       1  UNL1        0.0672
     26 H           0.4822   -0.4537    1.2794 H       1  UNL1        0.1464
     27 H          -0.0880    1.6064   -0.5272 H       1  UNL1        0.0511
     28 H           0.4749    0.2344   -1.4394 H       1  UNL1        0.0511
     29 H           1.4155    2.7105    1.0456 H       1  UNL1        0.0621
     30 H           3.6938    3.2300    1.6770 H       1  UNL1        0.0620
     31 H           5.4608    1.8289    0.8939 H       1  UNL1        0.0685
     32 H           2.7474   -0.5619   -1.1089 H       1  UNL1        0.0688
     33 H          -1.8879    0.2947   -1.3441 H       1  UNL1        0.0644
@<TRIPOS>UNITY_ATOM_ATTR
17 1
charge 1
19 1
charge -1
@<TRIPOS>BOND
     1     1     2    2
     2     2     3    1
     3     2     4    1
     4     4     5   ar
     5     4    21   ar
     6     5     6   ar
     7     6     7    1
     8     6     8   ar
     9     8     9   ar
    10     9    10    1
    11     9    21   ar
    12    10    11    1
    13    11    12    1
    14    12    13   ar
    15    12    20   ar
    16    13    14   ar
    17    14    15   ar
    18    15    16   ar
    19    16    17    1
    20    16    20   ar
    21    17    18    2
    22    17    19    1
    23     3    22    1
    24     5    23    1
    25     7    24    1
    26     8    25    1
    27    10    26    1
    28    11    27    1
    29    11    28    1
    30    13    29    1
    31    14    30    1
    32    15    31    1
    33    20    32    1
    34    21    33    1
@<TRIPOS>MOLECULE
../data/bude_mols_rdkit_confs_charged/molecule_49.pdb
 33 34 0 0 0
SMALL
GASTEIGER

@<TRIPOS>ATOM
      1 O           3.6900   -2.1740    1.8060 O.2     1  UNL1       -0.2451
      2 C           4.2830   -1.1850    1.3250 C.2     1  UNL1        0.3370
      3 O           5.6460   -1.0940    1.4630 O.3     1  UNL1       -0.4771
      4 C           3.5120   -0.1710    0.6390 C.ar    1  UNL1        0.0640
      5 C           4.1100    0.9590    0.0780 C.ar    1  UNL1       -0.0061
      6 C           3.3870    1.9240   -0.5730 C.ar    1  UNL1        0.1194
      7 O           3.9760    3.0430   -1.1280 O.3     1  UNL1       -0.5067
      8 C           2.0080    1.7590   -0.6710 C.ar    1  UNL1        0.0007
      9 C           1.3780    0.6620   -0.1340 C.ar    1  UNL1        0.0316
     10 N          -0.0200    0.5110   -0.2420 N.pl3   1  UNL1       -0.3396
     11 C          -0.6320   -0.6640    0.3420 C.3     1  UNL1        0.0346
     12 C          -2.0830   -0.7380    0.2120 C.ar    1  UNL1       -0.0240
     13 C          -2.7000   -1.9730    0.3010 C.ar    1  UNL1       -0.0567
     14 C          -4.0650   -2.1430    0.1970 C.ar    1  UNL1       -0.0550
     15 C          -4.8390   -1.0300   -0.0050 C.ar    1  UNL1        0.0156
     16 C          -4.2690    0.2200   -0.1010 C.ar    1  UNL1        0.2735
     17 N          -5.0870    1.3540   -0.3100 N.pl3   1  UNL1        0.0796
     18 O          -4.5920    2.4870   -0.3990 O.2     1  UNL1        0.0414
     19 O          -6.4360    1.1930   -0.4140 O.co2   1  UNL1       -0.5760
     20 C          -2.8780    0.3640    0.0090 C.ar    1  UNL1        0.0202
     21 C           2.1320   -0.2780    0.5070 C.ar    1  UNL1       -0.0266
     22 H           6.1048   -0.3583    1.1077 H       1  UNL1        0.2954
     23 H           5.1328    1.0715    0.1564 H       1  UNL1        0.0662
     24 H           4.9033    3.1632   -1.0674 H       1  UNL1        0.2921
     25 H           1.4470    2.4758   -1.1573 H       1  UNL1        0.0672
     26 H          -0.5663    1.1879   -0.7031 H       1  UNL1        0.1464
     27 H          -0.3919   -0.6788    1.3846 H       1  UNL1        0.0511
     28 H          -0.2423   -1.5014   -0.1982 H       1  UNL1        0.0511
     29 H          -2.1111   -2.8068    0.4524 H       1  UNL1        0.0621
     30 H          -4.4907   -3.0803    0.2691 H       1  UNL1        0.0620
     31 H          -5.8629   -1.1301   -0.0863 H       1  UNL1        0.0685
     32 H          -2.4505    1.3005   -0.0628 H       1  UNL1        0.0688
     33 H           1.6586   -1.1017    0.9101 H       1  UNL1        0.0644
@<TRIPOS>UNITY_ATOM_ATTR
17 1
charge 1
19 1
charge -1
@<TRIPOS>BOND
     1     1     2    2
     2     2     3    1
     3     2     4    1
     4     4     5   ar
     5     4    21   ar
     6     5     6   ar
     7     6     7    1
     8     6     8   ar
     9     8     9   ar
    10     9    10    1
    11     9    21   ar
    12    10    11    1
    13    11    12    1
    14    12    13   ar
    15    12    20   ar
    16    13    14   ar
    17    14    15   ar
    18    15    16   ar
    19    16    17    1
    20    16    20   ar
    21    17    18    2
    22    17    19    1
    23     3    22    1
    24     5    23    1
    25     7    24    1
    26     8    25    1
    27    10    26    1
    28    11    27    1
    29    11    28    1
    30    13    29    1
    31    14    30    1
    32    15    31    1
    33    20    32    1
    34    21    33    1
@<TRIPOS>MOLECULE
../data/bude_mols_rdkit_confs_charged/molecule_49.pdb
 33 34 0 0 0
SMALL
GASTEIGER

@<TRIPOS>ATOM
      1 O          -5.7680   -1.2000   -0.2300 O.2     1  UNL1       -0.2451
      2 C          -4.5380   -1.2830   -0.4220 C.2     1  UNL1        0.3370
      3 O          -4.0390   -2.2860   -1.2300 O.3     1  UNL1       -0.4771
      4 C          -3.6200   -0.3270    0.1990 C.ar    1  UNL1        0.0640
      5 C          -4.0950    0.6820    1.0100 C.ar    1  UNL1       -0.0061
      6 C          -3.2160    1.5750    1.5890 C.ar    1  UNL1        0.1194
      7 O          -3.7280    2.5960    2.4110 O.3     1  UNL1       -0.5067
      8 C          -1.8730    1.4440    1.3470 C.ar    1  UNL1        0.0007
      9 C          -1.3450    0.4540    0.5460 C.ar    1  UNL1        0.0316
     10 N           0.0430    0.3190    0.2980 N.pl3   1  UNL1       -0.3396
     11 C           0.5330   -0.7360   -0.5480 C.3     1  UNL1        0.0346
     12 C           2.0040   -0.6290   -0.6370 C.ar    1  UNL1       -0.0240
     13 C           2.7790   -1.7660   -0.6420 C.ar    1  UNL1       -0.0567
     14 C           4.1620   -1.7110   -0.7270 C.ar    1  UNL1       -0.0550
     15 C           4.7240   -0.4560   -0.8050 C.ar    1  UNL1        0.0156
     16 C           3.9620    0.6900   -0.8010 C.ar    1  UNL1        0.2735
     17 N           4.5380    1.9880   -0.8820 N.pl3   1  UNL1        0.0796
     18 O           3.8490    3.0180   -0.8780 O.2     1  UNL1        0.0414
     19 O           5.9150    2.0700   -0.9670 O.co2   1  UNL1       -0.5760
     20 C           2.5690    0.6190   -0.7150 C.ar    1  UNL1        0.0202
     21 C          -2.2620   -0.4290   -0.0210 C.ar    1  UNL1       -0.0266
     22 H          -3.1161   -2.3531   -1.3777 H       1  UNL1        0.2954
     23 H          -5.1084    0.7696    1.1842 H       1  UNL1        0.0662
     24 H          -4.6511    2.6604    2.5581 H       1  UNL1        0.2921
     25 H          -1.2265    2.1186    1.7853 H       1  UNL1        0.0672
     26 H           0.6766    0.9515    0.7074 H       1  UNL1        0.1464
     27 H           0.1057   -0.6420   -1.5244 H       1  UNL1        0.0511
     28 H           0.2612   -1.6866   -0.1389 H       1  UNL1        0.0511
     29 H           2.3173   -2.6869   -0.5807 H       1  UNL1        0.0621
     30 H           4.7400   -2.5659   -0.7316 H       1  UNL1        0.0620
     31 H           5.7506   -0.3722   -0.8686 H       1  UNL1        0.0685
     32 H           1.9879    1.4719   -0.7103 H       1  UNL1        0.0688
     33 H          -1.9123   -1.1870   -0.6277 H       1  UNL1        0.0644
@<TRIPOS>UNITY_ATOM_ATTR
17 1
charge 1
19 1
charge -1
@<TRIPOS>BOND
     1     1     2    2
     2     2     3    1
     3     2     4    1
     4     4     5   ar
     5     4    21   ar
     6     5     6   ar
     7     6     7    1
     8     6     8   ar
     9     8     9   ar
    10     9    10    1
    11     9    21   ar
    12    10    11    1
    13    11    12    1
    14    12    13   ar
    15    12    20   ar
    16    13    14   ar
    17    14    15   ar
    18    15    16   ar
    19    16    17    1
    20    16    20   ar
    21    17    18    2
    22    17    19    1
    23     3    22    1
    24     5    23    1
    25     7    24    1
    26     8    25    1
    27    10    26    1
    28    11    27    1
    29    11    28    1
    30    13    29    1
    31    14    30    1
    32    15    31    1
    33    20    32    1
    34    21    33    1
@<TRIPOS>MOLECULE
../data/bude_mols_rdkit_confs_charged/molecule_49.pdb
 33 34 0 0 0
SMALL
GASTEIGER

@<TRIPOS>ATOM
      1 O           3.7890    2.5700   -0.1050 O.2     1  UNL1       -0.2451
      2 C           4.3500    1.4300   -0.2090 C.2     1  UNL1        0.3370
      3 O           5.7310    1.4410   -0.2360 O.3     1  UNL1       -0.4771
      4 C           3.5510    0.2300   -0.2880 C.ar    1  UNL1        0.0640
      5 C           4.1670   -0.9860   -0.3990 C.ar    1  UNL1       -0.0061
      6 C           3.4020   -2.1270   -0.4750 C.ar    1  UNL1        0.1194
      7 O           4.0260   -3.3570   -0.5860 O.3     1  UNL1       -0.5067
      8 C           2.0260   -2.0310   -0.4380 C.ar    1  UNL1        0.0007
      9 C           1.3750   -0.8190   -0.3280 C.ar    1  UNL1        0.0316
     10 N          -0.0360   -0.7230   -0.2910 N.pl3   1  UNL1       -0.3396
     11 C          -0.6170    0.5790   -0.1740 C.3     1  UNL1        0.0346
     12 C          -2.0830    0.5800   -0.1430 C.ar    1  UNL1       -0.0240
     13 C          -2.7820    0.6770   -1.3260 C.ar    1  UNL1       -0.0567
     14 C          -4.1780    0.6820   -1.3470 C.ar    1  UNL1       -0.0550
     15 C          -4.8630    0.5900   -0.1740 C.ar    1  UNL1        0.0156
     16 C          -4.1980    0.4920    1.0200 C.ar    1  UNL1        0.2735
     17 N          -4.9270    0.3970    2.2260 N.pl3   1  UNL1        0.0796
     18 O          -4.3330    0.3080    3.3080 O.2     1  UNL1        0.0414
     19 O          -6.2850    0.4020    2.2010 O.co2   1  UNL1       -0.5760
     20 C          -2.7980    0.4880    1.0250 C.ar    1  UNL1        0.0202
     21 C           2.1830    0.2950   -0.2550 C.ar    1  UNL1       -0.0266
     22 H           6.2046    0.6360   -0.3110 H       1  UNL1        0.2954
     23 H           5.1968   -1.0472   -0.4255 H       1  UNL1        0.0662
     24 H           4.9613   -3.4074   -0.6100 H       1  UNL1        0.2921
     25 H           1.4645   -2.8950   -0.4945 H       1  UNL1        0.0672
     26 H          -0.6008   -1.5276   -0.3441 H       1  UNL1        0.1464
     27 H          -0.2982    1.1656   -1.0102 H       1  UNL1        0.0511
     28 H          -0.2884    0.9805    0.7618 H       1  UNL1        0.0511
     29 H          -2.2630    0.7474   -2.2152 H       1  UNL1        0.0621
     30 H          -4.6855    0.7547   -2.2426 H       1  UNL1        0.0620
     31 H          -5.8949    0.5941   -0.1843 H       1  UNL1        0.0685
     32 H          -2.2946    0.4146    1.9229 H       1  UNL1        0.0688
     33 H           1.7366    1.2217   -0.1716 H       1  UNL1        0.0644
@<TRIPOS>UNITY_ATOM_ATTR
17 1
charge 1
19 1
charge -1
@<TRIPOS>BOND
     1     1     2    2
     2     2     3    1
     3     2     4    1
     4     4     5   ar
     5     4    21   ar
     6     5     6   ar
     7     6     7    1
     8     6     8   ar
     9     8     9   ar
    10     9    10    1
    11     9    21   ar
    12    10    11    1
    13    11    12    1
    14    12    13   ar
    15    12    20   ar
    16    13    14   ar
    17    14    15   ar
    18    15    16   ar
    19    16    17    1
    20    16    20   ar
    21    17    18    2
    22    17    19    1
    23     3    22    1
    24     5    23    1
    25     7    24    1
    26     8    25    1
    27    10    26    1
    28    11    27    1
    29    11    28    1
    30    13    29    1
    31    14    30    1
    32    15    31    1
    33    20    32    1
    34    21    33    1
@<TRIPOS>MOLECULE
../data/bude_mols_rdkit_confs_charged/molecule_49.pdb
 33 34 0 0 0
SMALL
GASTEIGER

@<TRIPOS>ATOM
      1 O          -5.4950    1.5220    1.7420 O.2     1  UNL1       -0.2451
      2 C          -4.2350    1.4900    1.6500 C.2     1  UNL1        0.3370
      3 O          -3.4660    2.4360    2.2980 O.3     1  UNL1       -0.4771
      4 C          -3.6020    0.4530    0.8600 C.ar    1  UNL1        0.0640
      5 C          -4.3690   -0.5020    0.2060 C.ar    1  UNL1       -0.0061
      6 C          -3.8240   -1.4990   -0.5490 C.ar    1  UNL1        0.1194
      7 O          -4.6350   -2.4470   -1.1960 O.3     1  UNL1       -0.5067
      8 C          -2.4460   -1.5390   -0.6540 C.ar    1  UNL1        0.0007
      9 C          -1.6270   -0.6230   -0.0300 C.ar    1  UNL1        0.0316
     10 N          -0.2000   -0.6780   -0.1480 N.pl3   1  UNL1       -0.3396
     11 C           0.6480    0.2810    0.5050 C.3     1  UNL1        0.0346
     12 C           2.0750    0.0090    0.2540 C.ar    1  UNL1       -0.0240
     13 C           2.5260   -1.2800    0.0870 C.ar    1  UNL1       -0.0567
     14 C           3.8810   -1.5290   -0.1540 C.ar    1  UNL1       -0.0550
     15 C           4.7680   -0.4800   -0.2240 C.ar    1  UNL1        0.0156
     16 C           4.3200    0.8140   -0.0570 C.ar    1  UNL1        0.2735
     17 N           5.2720    1.8750   -0.1370 N.pl3   1  UNL1        0.0796
     18 O           6.4780    1.6510   -0.3510 O.2     1  UNL1        0.0414
     19 O           4.8700    3.1730    0.0240 O.co2   1  UNL1       -0.5760
     20 C           2.9940    1.0670    0.1800 C.ar    1  UNL1        0.0202
     21 C          -2.2480    0.3640    0.7220 C.ar    1  UNL1       -0.0266
     22 H          -2.5321    2.4089    2.2274 H       1  UNL1        0.2954
     23 H          -5.3961   -0.4555    0.2950 H       1  UNL1        0.0662
     24 H          -5.5671   -2.4017   -1.1117 H       1  UNL1        0.2921
     25 H          -2.0136   -2.2842   -1.2221 H       1  UNL1        0.0672
     26 H           0.2097   -1.3905   -0.6899 H       1  UNL1        0.1464
     27 H           0.4679    0.2418    1.5590 H       1  UNL1        0.0511
     28 H           0.4195    1.2497    0.1121 H       1  UNL1        0.0511
     29 H           1.8609   -2.0674    0.1398 H       1  UNL1        0.0621
     30 H           4.2146   -2.4976   -0.2790 H       1  UNL1        0.0620
     31 H           5.7684   -0.6610   -0.4014 H       1  UNL1        0.0685
     32 H           2.6702    2.0390    0.3045 H       1  UNL1        0.0688
     33 H          -1.6579    1.0634    1.1991 H       1  UNL1        0.0644
@<TRIPOS>UNITY_ATOM_ATTR
17 1
charge 1
19 1
charge -1
@<TRIPOS>BOND
     1     1     2    2
     2     2     3    1
     3     2     4    1
     4     4     5   ar
     5     4    21   ar
     6     5     6   ar
     7     6     7    1
     8     6     8   ar
     9     8     9   ar
    10     9    10    1
    11     9    21   ar
    12    10    11    1
    13    11    12    1
    14    12    13   ar
    15    12    20   ar
    16    13    14   ar
    17    14    15   ar
    18    15    16   ar
    19    16    17    1
    20    16    20   ar
    21    17    18    2
    22    17    19    1
    23     3    22    1
    24     5    23    1
    25     7    24    1
    26     8    25    1
    27    10    26    1
    28    11    27    1
    29    11    28    1
    30    13    29    1
    31    14    30    1
    32    15    31    1
    33    20    32    1
    34    21    33    1
@<TRIPOS>MOLECULE
../data/bude_mols_rdkit_confs_charged/molecule_49.pdb
 33 34 0 0 0
SMALL
GASTEIGER

@<TRIPOS>ATOM
      1 O          -3.2910   -2.5010   -1.6280 O.2     1  UNL1       -0.2451
      2 C          -4.0640   -1.6330   -1.1620 C.2     1  UNL1        0.3370
      3 O          -5.4360   -1.8280   -1.2720 O.3     1  UNL1       -0.4771
      4 C          -3.5000   -0.4590   -0.5250 C.ar    1  UNL1        0.0640
      5 C          -4.2800    0.5510    0.0180 C.ar    1  UNL1       -0.0061
      6 C          -3.7230    1.6590    0.6190 C.ar    1  UNL1        0.1194
      7 O          -4.4520    2.6970    1.1780 O.3     1  UNL1       -0.5067
      8 C          -2.3480    1.7540    0.6760 C.ar    1  UNL1        0.0007
      9 C          -1.5300    0.7730    0.1490 C.ar    1  UNL1        0.0316
     10 N          -0.1160    0.9100    0.2290 N.pl3   1  UNL1       -0.3396
     11 C           0.6730   -0.1500   -0.3420 C.3     1  UNL1        0.0346
     12 C           2.1260    0.0380   -0.2580 C.ar    1  UNL1       -0.0240
     13 C           2.7010    1.2570   -0.0940 C.ar    1  UNL1       -0.0567
     14 C           4.0750    1.3890   -0.0140 C.ar    1  UNL1       -0.0550
     15 C           4.8900    0.2830   -0.1000 C.ar    1  UNL1        0.0156
     16 C           4.3460   -0.9710   -0.2670 C.ar    1  UNL1        0.2735
     17 N           5.1500   -2.1310   -0.3590 N.pl3   1  UNL1        0.0796
     18 O           6.3920   -2.0780   -0.2950 O.2     1  UNL1        0.0414
     19 O           4.5670   -3.3540   -0.5240 O.co2   1  UNL1       -0.5760
     20 C           2.9830   -1.0660   -0.3420 C.ar    1  UNL1        0.0202
     21 C          -2.1480   -0.3140   -0.4410 C.ar    1  UNL1       -0.0266
     22 H          -6.0290   -1.1888   -0.9289 H       1  UNL1        0.2954
     23 H          -5.3078    0.4705   -0.0294 H       1  UNL1        0.0662
     24 H          -5.3886    2.6737    1.1616 H       1  UNL1        0.2921
     25 H          -1.9192    2.5790    1.1238 H       1  UNL1        0.0672
     26 H           0.3029    1.6927    0.6547 H       1  UNL1        0.1464
     27 H           0.4099   -0.2388   -1.3753 H       1  UNL1        0.0511
     28 H           0.4532   -1.0260    0.2317 H       1  UNL1        0.0511
     29 H           2.1044    2.0965   -0.0282 H       1  UNL1        0.0621
     30 H           4.4929    2.3243    0.1112 H       1  UNL1        0.0620
     31 H           5.9142    0.3942   -0.0390 H       1  UNL1        0.0685
     32 H           2.5645   -2.0010   -0.4671 H       1  UNL1        0.0688
     33 H          -1.5523   -1.0564   -0.8397 H       1  UNL1        0.0644
@<TRIPOS>UNITY_ATOM_ATTR
17 1
charge 1
19 1
charge -1
@<TRIPOS>BOND
     1     1     2    2
     2     2     3    1
     3     2     4    1
     4     4     5   ar
     5     4    21   ar
     6     5     6   ar
     7     6     7    1
     8     6     8   ar
     9     8     9   ar
    10     9    10    1
    11     9    21   ar
    12    10    11    1
    13    11    12    1
    14    12    13   ar
    15    12    20   ar
    16    13    14   ar
    17    14    15   ar
    18    15    16   ar
    19    16    17    1
    20    16    20   ar
    21    17    18    2
    22    17    19    1
    23     3    22    1
    24     5    23    1
    25     7    24    1
    26     8    25    1
    27    10    26    1
    28    11    27    1
    29    11    28    1
    30    13    29    1
    31    14    30    1
    32    15    31    1
    33    20    32    1
    34    21    33    1
@<TRIPOS>MOLECULE
../data/bude_mols_rdkit_confs_charged/molecule_49.pdb
 33 34 0 0 0
SMALL
GASTEIGER

@<TRIPOS>ATOM
      1 O          -4.5880    1.6460    2.2830 O.2     1  UNL1       -0.2451
      2 C          -4.8530    0.8210    1.3810 C.2     1  UNL1        0.3370
      3 O          -6.1710    0.4880    1.1560 O.3     1  UNL1       -0.4771
      4 C          -3.7910    0.2330    0.5940 C.ar    1  UNL1        0.0640
      5 C          -4.1340   -0.6870   -0.4050 C.ar    1  UNL1       -0.0061
      6 C          -3.1660   -1.2730   -1.1800 C.ar    1  UNL1        0.1194
      7 O          -3.5080   -2.1730   -2.1570 O.3     1  UNL1       -0.5067
      8 C          -1.8490   -0.9520   -0.9680 C.ar    1  UNL1        0.0007
      9 C          -1.4560   -0.0500    0.0060 C.ar    1  UNL1        0.0316
     10 N          -0.0970    0.2760    0.2190 N.pl3   1  UNL1       -0.3396
     11 C           0.8730   -0.3660   -0.6180 C.3     1  UNL1        0.0346
     12 C           2.2640    0.0370   -0.3230 C.ar    1  UNL1       -0.0240
     13 C           2.7390    1.1340   -1.0140 C.ar    1  UNL1       -0.0567
     14 C           4.0190    1.6230   -0.8400 C.ar    1  UNL1       -0.0550
     15 C           4.8210    0.9720    0.0590 C.ar    1  UNL1        0.0156
     16 C           4.3530   -0.1400    0.7650 C.ar    1  UNL1        0.2735
     17 N           5.2230   -0.7710    1.6780 N.pl3   1  UNL1        0.0796
     18 O           6.3770   -0.3680    1.8660 O.2     1  UNL1        0.0414
     19 O           4.7970   -1.8580    2.3820 O.co2   1  UNL1       -0.5760
     20 C           3.0730   -0.6050    0.5710 C.ar    1  UNL1        0.0202
     21 C          -2.4500    0.5180    0.7630 C.ar    1  UNL1       -0.0266
     22 H          -6.3906   -0.1280    0.4850 H       1  UNL1        0.2954
     23 H          -5.1259   -0.9265   -0.5595 H       1  UNL1        0.0662
     24 H          -4.4083   -2.3903   -2.2995 H       1  UNL1        0.2921
     25 H          -1.1266   -1.3982   -1.5546 H       1  UNL1        0.0672
     26 H           0.1723    0.9185    0.9146 H       1  UNL1        0.1464
     27 H           0.6576   -0.1196   -1.6367 H       1  UNL1        0.0511
     28 H           0.8033   -1.4174   -0.4318 H       1  UNL1        0.0511
     29 H           2.1141    1.6064   -1.6858 H       1  UNL1        0.0621
     30 H           4.3568    2.4445   -1.3654 H       1  UNL1        0.0620
     31 H           5.7842    1.3070    0.2175 H       1  UNL1        0.0685
     32 H           2.7292   -1.4263    1.0929 H       1  UNL1        0.0688
     33 H          -2.1817    1.1928    1.4963 H       1  UNL1        0.0644
@<TRIPOS>UNITY_ATOM_ATTR
17 1
charge 1
19 1
charge -1
@<TRIPOS>BOND
     1     1     2    2
     2     2     3    1
     3     2     4    1
     4     4     5   ar
     5     4    21   ar
     6     5     6   ar
     7     6     7    1
     8     6     8   ar
     9     8     9   ar
    10     9    10    1
    11     9    21   ar
    12    10    11    1
    13    11    12    1
    14    12    13   ar
    15    12    20   ar
    16    13    14   ar
    17    14    15   ar
    18    15    16   ar
    19    16    17    1
    20    16    20   ar
    21    17    18    2
    22    17    19    1
    23     3    22    1
    24     5    23    1
    25     7    24    1
    26     8    25    1
    27    10    26    1
    28    11    27    1
    29    11    28    1
    30    13    29    1
    31    14    30    1
    32    15    31    1
    33    20    32    1
    34    21    33    1
@<TRIPOS>MOLECULE
../data/bude_mols_rdkit_confs_charged/molecule_49.pdb
 33 34 0 0 0
SMALL
GASTEIGER

@<TRIPOS>ATOM
      1 O          -4.1700   -2.5630    2.1550 O.2     1  UNL1       -0.2451
      2 C          -4.6090   -1.7640    1.3130 C.2     1  UNL1        0.3370
      3 O          -5.9520   -1.7210    1.0320 O.3     1  UNL1       -0.4771
      4 C          -3.7000   -0.8440    0.5960 C.ar    1  UNL1        0.0640
      5 C          -4.1830    0.0420   -0.3380 C.ar    1  UNL1       -0.0061
      6 C          -3.3660    0.9010   -1.0120 C.ar    1  UNL1        0.1194
      7 O          -3.8580    1.8030   -1.9620 O.3     1  UNL1       -0.5067
      8 C          -2.0140    0.8880   -0.7570 C.ar    1  UNL1        0.0007
      9 C          -1.4990    0.0000    0.1830 C.ar    1  UNL1        0.0316
     10 N          -0.1140    0.0250    0.4080 N.pl3   1  UNL1       -0.3396
     11 C           0.7970    0.9080   -0.2740 C.3     1  UNL1        0.0346
     12 C           2.2000    0.7120    0.1650 C.ar    1  UNL1       -0.0240
     13 C           2.7230    1.4260    1.2210 C.ar    1  UNL1       -0.0567
     14 C           4.0160    1.2660    1.6480 C.ar    1  UNL1       -0.0550
     15 C           4.8390    0.3630    1.0130 C.ar    1  UNL1        0.0156
     16 C           4.3530   -0.3670   -0.0450 C.ar    1  UNL1        0.2735
     17 N           5.1790   -1.3110   -0.7270 N.pl3   1  UNL1        0.0796
     18 O           4.7170   -1.9620   -1.6810 O.2     1  UNL1        0.0414
     19 O           6.4630   -1.5120   -0.3490 O.co2   1  UNL1       -0.5760
     20 C           3.0340   -0.1840   -0.4580 C.ar    1  UNL1        0.0202
     21 C          -2.3460   -0.8540    0.8480 C.ar    1  UNL1       -0.0266
     22 H          -6.2783   -1.1158    0.3954 H       1  UNL1        0.2954
     23 H          -5.1959    0.0574   -0.5352 H       1  UNL1        0.0662
     24 H          -4.7752    1.8295   -2.1519 H       1  UNL1        0.2921
     25 H          -1.3850    1.5333   -1.2601 H       1  UNL1        0.0672
     26 H           0.2576   -0.5991    1.0726 H       1  UNL1        0.1464
     27 H           0.5113    1.9196   -0.0740 H       1  UNL1        0.0511
     28 H           0.7461    0.6890   -1.3201 H       1  UNL1        0.0511
     29 H           2.1192    2.1063    1.7085 H       1  UNL1        0.0621
     30 H           4.3712    1.8205    2.4426 H       1  UNL1        0.0620
     31 H           5.8131    0.2354    1.3291 H       1  UNL1        0.0685
     32 H           2.6750   -0.7362   -1.2525 H       1  UNL1        0.0688
     33 H          -1.9625   -1.5112    1.5451 H       1  UNL1        0.0644
@<TRIPOS>UNITY_ATOM_ATTR
17 1
charge 1
19 1
charge -1
@<TRIPOS>BOND
     1     1     2    2
     2     2     3    1
     3     2     4    1
     4     4     5   ar
     5     4    21   ar
     6     5     6   ar
     7     6     7    1
     8     6     8   ar
     9     8     9   ar
    10     9    10    1
    11     9    21   ar
    12    10    11    1
    13    11    12    1
    14    12    13   ar
    15    12    20   ar
    16    13    14   ar
    17    14    15   ar
    18    15    16   ar
    19    16    17    1
    20    16    20   ar
    21    17    18    2
    22    17    19    1
    23     3    22    1
    24     5    23    1
    25     7    24    1
    26     8    25    1
    27    10    26    1
    28    11    27    1
    29    11    28    1
    30    13    29    1
    31    14    30    1
    32    15    31    1
    33    20    32    1
    34    21    33    1
@<TRIPOS>MOLECULE
../data/bude_mols_rdkit_confs_charged/molecule_49.pdb
 33 34 0 0 0
SMALL
GASTEIGER

@<TRIPOS>ATOM
      1 O          -5.5930    0.4760   -2.0320 O.2     1  UNL1       -0.2451
      2 C          -4.3460    0.4000   -2.0040 C.2     1  UNL1        0.3370
      3 O          -3.5690    0.5130   -3.1520 O.3     1  UNL1       -0.4771
      4 C          -3.6880    0.1850   -0.7260 C.ar    1  UNL1        0.0640
      5 C          -4.4260    0.0660    0.4460 C.ar    1  UNL1       -0.0061
      6 C          -3.7710   -0.1360    1.6390 C.ar    1  UNL1        0.1194
      7 O          -4.5180   -0.2520    2.7950 O.3     1  UNL1       -0.5067
      8 C          -2.3970   -0.2210    1.6690 C.ar    1  UNL1        0.0007
      9 C          -1.6210   -0.1090    0.5300 C.ar    1  UNL1        0.0316
     10 N          -0.2040   -0.1980    0.5800 N.pl3   1  UNL1       -0.3396
     11 C           0.6410   -0.0870   -0.5830 C.3     1  UNL1        0.0346
     12 C           2.0660   -0.2270   -0.1770 C.ar    1  UNL1       -0.0240
     13 C           2.4420   -1.2230    0.7020 C.ar    1  UNL1       -0.0567
     14 C           3.7440   -1.4040    1.1160 C.ar    1  UNL1       -0.0550
     15 C           4.7120   -0.5480    0.6290 C.ar    1  UNL1        0.0156
     16 C           4.3700    0.4610   -0.2530 C.ar    1  UNL1        0.2735
     17 N           5.4090    1.3090   -0.7190 N.pl3   1  UNL1        0.0796
     18 O           6.5900    1.1610   -0.3560 O.2     1  UNL1        0.0414
     19 O           5.1120    2.3270   -1.5980 O.co2   1  UNL1       -0.5760
     20 C           3.0560    0.6110   -0.6450 C.ar    1  UNL1        0.0202
     21 C          -2.2950    0.0940   -0.6540 C.ar    1  UNL1       -0.0266
     22 H          -2.6358    0.4510   -3.0941 H       1  UNL1        0.2954
     23 H          -5.4558    0.1286    0.4215 H       1  UNL1        0.0662
     24 H          -5.4523   -0.1918    2.7571 H       1  UNL1        0.2921
     25 H          -1.9287   -0.3741    2.5758 H       1  UNL1        0.0672
     26 H           0.2235   -0.3431    1.4549 H       1  UNL1        0.1464
     27 H           0.4931    0.8685   -1.0413 H       1  UNL1        0.0511
     28 H           0.3915   -0.8597   -1.2798 H       1  UNL1        0.0511
     29 H           1.7160   -1.8602    1.0651 H       1  UNL1        0.0621
     30 H           3.9895   -2.1605    1.7736 H       1  UNL1        0.0620
     31 H           5.6943   -0.6616    0.9243 H       1  UNL1        0.0685
     32 H           2.8085    1.3667   -1.3028 H       1  UNL1        0.0688
     33 H          -1.7484    0.1827   -1.5248 H       1  UNL1        0.0644
@<TRIPOS>UNITY_ATOM_ATTR
17 1
charge 1
19 1
charge -1
@<TRIPOS>BOND
     1     1     2    2
     2     2     3    1
     3     2     4    1
     4     4     5   ar
     5     4    21   ar
     6     5     6   ar
     7     6     7    1
     8     6     8   ar
     9     8     9   ar
    10     9    10    1
    11     9    21   ar
    12    10    11    1
    13    11    12    1
    14    12    13   ar
    15    12    20   ar
    16    13    14   ar
    17    14    15   ar
    18    15    16   ar
    19    16    17    1
    20    16    20   ar
    21    17    18    2
    22    17    19    1
    23     3    22    1
    24     5    23    1
    25     7    24    1
    26     8    25    1
    27    10    26    1
    28    11    27    1
    29    11    28    1
    30    13    29    1
    31    14    30    1
    32    15    31    1
    33    20    32    1
    34    21    33    1
@<TRIPOS>MOLECULE
../data/bude_mols_rdkit_confs_charged/molecule_49.pdb
 33 34 0 0 0
SMALL
GASTEIGER

@<TRIPOS>ATOM
      1 O          -5.9520   -1.4560   -0.9830 O.2     1  UNL1       -0.2451
      2 C          -4.7370   -1.6880   -1.0240 C.2     1  UNL1        0.3370
      3 O          -4.3030   -2.9340   -1.4500 O.3     1  UNL1       -0.4771
      4 C          -3.8060   -0.6430   -0.6220 C.ar    1  UNL1        0.0640
      5 C          -4.2490    0.5830   -0.2030 C.ar    1  UNL1       -0.0061
      6 C          -3.3630    1.5790    0.1800 C.ar    1  UNL1        0.1194
      7 O          -3.8570    2.7970    0.5940 O.3     1  UNL1       -0.5067
      8 C          -2.0160    1.3130    0.1320 C.ar    1  UNL1        0.0007
      9 C          -1.5200    0.1020   -0.2800 C.ar    1  UNL1        0.0316
     10 N          -0.1210   -0.1480   -0.3200 N.pl3   1  UNL1       -0.3396
     11 C           0.7690    0.8970    0.0810 C.3     1  UNL1        0.0346
     12 C           2.1910    0.5230   -0.0030 C.ar    1  UNL1       -0.0240
     13 C           2.9530    0.7220   -1.1450 C.ar    1  UNL1       -0.0567
     14 C           4.2830    0.3550   -1.1780 C.ar    1  UNL1       -0.0550
     15 C           4.9120   -0.2170   -0.0980 C.ar    1  UNL1        0.0156
     16 C           4.1590   -0.4180    1.0430 C.ar    1  UNL1        0.2735
     17 N           4.8090   -1.0100    2.1600 N.pl3   1  UNL1        0.0796
     18 O           4.1300   -1.1920    3.1900 O.2     1  UNL1        0.0414
     19 O           6.1090   -1.3840    2.1700 O.co2   1  UNL1       -0.5760
     20 C           2.8300   -0.0530    1.0800 C.ar    1  UNL1        0.0202
     21 C          -2.4500   -0.8600   -0.6520 C.ar    1  UNL1       -0.0266
     22 H          -3.3861   -3.1236   -1.4861 H       1  UNL1        0.2954
     23 H          -5.2635    0.7699   -0.1715 H       1  UNL1        0.0662
     24 H          -4.7820    2.9449    0.6146 H       1  UNL1        0.2921
     25 H          -1.3531    2.0511    0.4162 H       1  UNL1        0.0672
     26 H           0.2268   -1.0199   -0.6167 H       1  UNL1        0.1464
     27 H           0.5474    1.1602    1.0942 H       1  UNL1        0.0511
     28 H           0.6185    1.7142   -0.5931 H       1  UNL1        0.0511
     29 H           2.5206    1.1492   -1.9790 H       1  UNL1        0.0621
     30 H           4.8233    0.5154   -2.0425 H       1  UNL1        0.0620
     31 H           5.9076   -0.4858   -0.1377 H       1  UNL1        0.0685
     32 H           2.2931   -0.2153    1.9463 H       1  UNL1        0.0688
     33 H          -2.1062   -1.7811   -0.9657 H       1  UNL1        0.0644
@<TRIPOS>UNITY_ATOM_ATTR
17 1
charge 1
19 1
charge -1
@<TRIPOS>BOND
     1     1     2    2
     2     2     3    1
     3     2     4    1
     4     4     5   ar
     5     4    21   ar
     6     5     6   ar
     7     6     7    1
     8     6     8   ar
     9     8     9   ar
    10     9    10    1
    11     9    21   ar
    12    10    11    1
    13    11    12    1
    14    12    13   ar
    15    12    20   ar
    16    13    14   ar
    17    14    15   ar
    18    15    16   ar
    19    16    17    1
    20    16    20   ar
    21    17    18    2
    22    17    19    1
    23     3    22    1
    24     5    23    1
    25     7    24    1
    26     8    25    1
    27    10    26    1
    28    11    27    1
    29    11    28    1
    30    13    29    1
    31    14    30    1
    32    15    31    1
    33    20    32    1
    34    21    33    1
@<TRIPOS>MOLECULE
../data/bude_mols_rdkit_confs_charged/molecule_49.pdb
 33 34 0 0 0
SMALL
GASTEIGER

@<TRIPOS>ATOM
      1 O          -6.0470    1.3390   -0.4860 O.2     1  UNL1       -0.2451
      2 C          -4.8420    1.6020   -0.7000 C.2     1  UNL1        0.3370
      3 O          -4.5370    2.8010   -1.3130 O.3     1  UNL1       -0.4771
      4 C          -3.8430    0.6300   -0.2900 C.ar    1  UNL1        0.0640
      5 C          -4.1980   -0.5530    0.3190 C.ar    1  UNL1       -0.0061
      6 C          -3.2860   -1.5040    0.7240 C.ar    1  UNL1        0.1194
      7 O          -3.6740   -2.6880    1.3360 O.3     1  UNL1       -0.5067
      8 C          -1.9650   -1.2530    0.5080 C.ar    1  UNL1        0.0007
      9 C          -1.5230   -0.0770   -0.1030 C.ar    1  UNL1        0.0316
     10 N          -0.1390    0.1580   -0.3150 N.pl3   1  UNL1       -0.3396
     11 C           0.8110   -0.8340    0.1080 C.3     1  UNL1        0.0346
     12 C           2.1980   -0.4940   -0.1570 C.ar    1  UNL1       -0.0240
     13 C           2.8200   -0.8400   -1.3350 C.ar    1  UNL1       -0.0567
     14 C           4.1610   -0.4980   -1.5630 C.ar    1  UNL1       -0.0550
     15 C           4.8740    0.1880   -0.6120 C.ar    1  UNL1        0.0156
     16 C           4.2520    0.5380    0.5770 C.ar    1  UNL1        0.2735
     17 N           4.9530    1.2410    1.5730 N.pl3   1  UNL1        0.0796
     18 O           4.3910    1.5490    2.6290 O.2     1  UNL1        0.0414
     19 O           6.2610    1.5950    1.3960 O.co2   1  UNL1       -0.5760
     20 C           2.9300    0.1940    0.7850 C.ar    1  UNL1        0.0202
     21 C          -2.4840    0.8360   -0.4860 C.ar    1  UNL1       -0.0266
     22 H          -3.6437    3.0249   -1.4859 H       1  UNL1        0.2954
     23 H          -5.2004   -0.7374    0.4808 H       1  UNL1        0.0662
     24 H          -4.5824   -2.8624    1.4854 H       1  UNL1        0.2921
     25 H          -1.2682   -1.9539    0.8052 H       1  UNL1        0.0672
     26 H           0.1658    0.9891   -0.7459 H       1  UNL1        0.1464
     27 H           0.5882   -1.7482   -0.4014 H       1  UNL1        0.0511
     28 H           0.7154   -0.9120    1.1709 H       1  UNL1        0.0511
     29 H           2.2945   -1.3562   -2.0577 H       1  UNL1        0.0621
     30 H           4.6142   -0.7638   -2.4512 H       1  UNL1        0.0620
     31 H           5.8606    0.4402   -0.7796 H       1  UNL1        0.0685
     32 H           2.4774    0.4608    1.6733 H       1  UNL1        0.0688
     33 H          -2.1788    1.7117   -0.9387 H       1  UNL1        0.0644
@<TRIPOS>UNITY_ATOM_ATTR
17 1
charge 1
19 1
charge -1
@<TRIPOS>BOND
     1     1     2    2
     2     2     3    1
     3     2     4    1
     4     4     5   ar
     5     4    21   ar
     6     5     6   ar
     7     6     7    1
     8     6     8   ar
     9     8     9   ar
    10     9    10    1
    11     9    21   ar
    12    10    11    1
    13    11    12    1
    14    12    13   ar
    15    12    20   ar
    16    13    14   ar
    17    14    15   ar
    18    15    16   ar
    19    16    17    1
    20    16    20   ar
    21    17    18    2
    22    17    19    1
    23     3    22    1
    24     5    23    1
    25     7    24    1
    26     8    25    1
    27    10    26    1
    28    11    27    1
    29    11    28    1
    30    13    29    1
    31    14    30    1
    32    15    31    1
    33    20    32    1
    34    21    33    1
@<TRIPOS>MOLECULE
../data/bude_mols_rdkit_confs_charged/molecule_49.pdb
 33 34 0 0 0
SMALL
GASTEIGER

@<TRIPOS>ATOM
      1 O           5.6610   -1.4790    0.3070 O.2     1  UNL1       -0.2451
      2 C           4.4130   -1.4810    0.2470 C.2     1  UNL1        0.3370
      3 O           3.7640   -2.6950    0.4570 O.3     1  UNL1       -0.4771
      4 C           3.6220   -0.2870   -0.0270 C.ar    1  UNL1        0.0640
      5 C           4.2350    0.9220   -0.2370 C.ar    1  UNL1       -0.0061
      6 C           3.4500    2.0470   -0.4980 C.ar    1  UNL1        0.1194
      7 O           4.1520    3.2400   -0.7000 O.3     1  UNL1       -0.5067
      8 C           2.0770    1.9780   -0.5500 C.ar    1  UNL1        0.0007
      9 C           1.4620    0.7640   -0.3390 C.ar    1  UNL1        0.0316
     10 N           0.0440    0.6950   -0.3930 N.pl3   1  UNL1       -0.3396
     11 C          -0.5630   -0.5830   -0.1690 C.3     1  UNL1        0.0346
     12 C          -2.0110   -0.6430   -0.2050 C.ar    1  UNL1       -0.0240
     13 C          -2.5750   -1.9180   -0.3190 C.ar    1  UNL1       -0.0567
     14 C          -3.9460   -2.0680   -0.3560 C.ar    1  UNL1       -0.0550
     15 C          -4.7630   -0.9560   -0.2800 C.ar    1  UNL1        0.0156
     16 C          -4.2380    0.3060   -0.1690 C.ar    1  UNL1        0.2735
     17 N          -5.0520    1.4740   -0.0890 N.pl3   1  UNL1        0.0796
     18 O          -4.5020    2.5850    0.0110 O.2     1  UNL1        0.0414
     19 O          -6.4040    1.3140   -0.1270 O.co2   1  UNL1       -0.5760
     20 C          -2.8490    0.4290   -0.1340 C.ar    1  UNL1        0.0202
     21 C           2.2580   -0.3450   -0.0810 C.ar    1  UNL1       -0.0266
     22 H           2.8287   -2.7387    0.4204 H       1  UNL1        0.2954
     23 H           5.2635    0.9992   -0.2025 H       1  UNL1        0.0662
     24 H           5.0880    3.2460   -0.6564 H       1  UNL1        0.2921
     25 H           1.5167    2.8227   -0.7441 H       1  UNL1        0.0672
     26 H          -0.5003    1.4944   -0.5772 H       1  UNL1        0.1464
     27 H          -0.2504   -0.9233    0.7961 H       1  UNL1        0.0511
     28 H          -0.2409   -1.1895   -0.9895 H       1  UNL1        0.0511
     29 H          -1.9644   -2.7481   -0.3755 H       1  UNL1        0.0621
     30 H          -4.3608   -3.0092   -0.4403 H       1  UNL1        0.0620
     31 H          -5.7874   -1.0776   -0.3073 H       1  UNL1        0.0685
     32 H          -2.4385    1.3722   -0.0508 H       1  UNL1        0.0688
     33 H           1.7976   -1.2550    0.0772 H       1  UNL1        0.0644
@<TRIPOS>UNITY_ATOM_ATTR
17 1
charge 1
19 1
charge -1
@<TRIPOS>BOND
     1     1     2    2
     2     2     3    1
     3     2     4    1
     4     4     5   ar
     5     4    21   ar
     6     5     6   ar
     7     6     7    1
     8     6     8   ar
     9     8     9   ar
    10     9    10    1
    11     9    21   ar
    12    10    11    1
    13    11    12    1
    14    12    13   ar
    15    12    20   ar
    16    13    14   ar
    17    14    15   ar
    18    15    16   ar
    19    16    17    1
    20    16    20   ar
    21    17    18    2
    22    17    19    1
    23     3    22    1
    24     5    23    1
    25     7    24    1
    26     8    25    1
    27    10    26    1
    28    11    27    1
    29    11    28    1
    30    13    29    1
    31    14    30    1
    32    15    31    1
    33    20    32    1
    34    21    33    1
@<TRIPOS>MOLECULE
../data/bude_mols_rdkit_confs_charged/molecule_49.pdb
 33 34 0 0 0
SMALL
GASTEIGER

@<TRIPOS>ATOM
      1 O           4.8960   -1.9200    1.1790 O.2     1  UNL1       -0.2451
      2 C           4.6270   -0.7150    1.0340 C.2     1  UNL1        0.3370
      3 O           5.5670    0.2090    1.4700 O.3     1  UNL1       -0.4771
      4 C           3.3800   -0.2590    0.4330 C.ar    1  UNL1        0.0640
      5 C           3.1150    1.0770    0.2880 C.ar    1  UNL1       -0.0061
      6 C           1.9370    1.5060   -0.2800 C.ar    1  UNL1        0.1194
      7 O           1.6430    2.8610   -0.4400 O.3     1  UNL1       -0.5067
      8 C           1.0130    0.5510   -0.7090 C.ar    1  UNL1        0.0007
      9 C           1.2490   -0.7960   -0.5770 C.ar    1  UNL1        0.0316
     10 N           0.3080   -1.7700   -1.0080 N.pl3   1  UNL1       -0.3396
     11 C          -0.9680   -1.4090   -1.5380 C.3     1  UNL1        0.0346
     12 C          -1.8250   -0.6980   -0.5670 C.ar    1  UNL1       -0.0240
     13 C          -1.4500   -0.6090    0.7480 C.ar    1  UNL1       -0.0567
     14 C          -2.2550    0.0640    1.6750 C.ar    1  UNL1       -0.0550
     15 C          -3.4360    0.6490    1.2910 C.ar    1  UNL1        0.0156
     16 C          -3.8060    0.5520   -0.0480 C.ar    1  UNL1        0.2735
     17 N          -5.0140    1.1460   -0.4630 N.pl3   1  UNL1        0.0796
     18 O          -5.7410    1.7470    0.3450 O.2     1  UNL1        0.0414
     19 O          -5.3880    1.0560   -1.7810 O.co2   1  UNL1       -0.5760
     20 C          -3.0020   -0.1170   -0.9590 C.ar    1  UNL1        0.0202
     21 C           2.4430   -1.1770   -0.0020 C.ar    1  UNL1       -0.0266
     22 H           5.4000    1.1264    1.3777 H       1  UNL1        0.2954
     23 H           3.8079    1.7712    0.6089 H       1  UNL1        0.0662
     24 H           2.2559    3.5102   -0.1556 H       1  UNL1        0.2921
     25 H           0.1283    0.8657   -1.1371 H       1  UNL1        0.0672
     26 H           0.5432   -2.7235   -0.9390 H       1  UNL1        0.1464
     27 H          -1.4722   -2.3010   -1.8464 H       1  UNL1        0.0511
     28 H          -0.7938   -0.7407   -2.3553 H       1  UNL1        0.0511
     29 H          -0.5660   -1.0421    1.0579 H       1  UNL1        0.0621
     30 H          -1.9562    0.1211    2.6611 H       1  UNL1        0.0620
     31 H          -4.0308    1.1450    1.9731 H       1  UNL1        0.0685
     32 H          -3.2948   -0.1780   -1.9467 H       1  UNL1        0.0688
     33 H           2.6440   -2.1833    0.1074 H       1  UNL1        0.0644
@<TRIPOS>UNITY_ATOM_ATTR
17 1
charge 1
19 1
charge -1
@<TRIPOS>BOND
     1     1     2    2
     2     2     3    1
     3     2     4    1
     4     4     5   ar
     5     4    21   ar
     6     5     6   ar
     7     6     7    1
     8     6     8   ar
     9     8     9   ar
    10     9    10    1
    11     9    21   ar
    12    10    11    1
    13    11    12    1
    14    12    13   ar
    15    12    20   ar
    16    13    14   ar
    17    14    15   ar
    18    15    16   ar
    19    16    17    1
    20    16    20   ar
    21    17    18    2
    22    17    19    1
    23     3    22    1
    24     5    23    1
    25     7    24    1
    26     8    25    1
    27    10    26    1
    28    11    27    1
    29    11    28    1
    30    13    29    1
    31    14    30    1
    32    15    31    1
    33    20    32    1
    34    21    33    1
@<TRIPOS>MOLECULE
../data/bude_mols_rdkit_confs_charged/molecule_49.pdb
 33 34 0 0 0
SMALL
GASTEIGER

@<TRIPOS>ATOM
      1 O          -4.5580    2.6930   -1.3120 O.2     1  UNL1       -0.2451
      2 C          -4.8890    1.5770   -0.8680 C.2     1  UNL1        0.3370
      3 O          -6.2320    1.2510   -0.8010 O.3     1  UNL1       -0.4771
      4 C          -3.8870    0.6050   -0.4170 C.ar    1  UNL1        0.0640
      5 C          -4.2350   -0.6290    0.0740 C.ar    1  UNL1       -0.0061
      6 C          -3.2840   -1.5480    0.5000 C.ar    1  UNL1        0.1194
      7 O          -3.6410   -2.8000    0.9980 O.3     1  UNL1       -0.5067
      8 C          -1.9480   -1.2080    0.4270 C.ar    1  UNL1        0.0007
      9 C          -1.5600    0.0400   -0.0680 C.ar    1  UNL1        0.0316
     10 N          -0.1780    0.3640   -0.1330 N.pl3   1  UNL1       -0.3396
     11 C           0.8460   -0.5280    0.2860 C.3     1  UNL1        0.0346
     12 C           2.2150    0.0320    0.1520 C.ar    1  UNL1       -0.0240
     13 C           2.5080    1.3710    0.1770 C.ar    1  UNL1       -0.0567
     14 C           3.8200    1.8030    0.0390 C.ar    1  UNL1       -0.0550
     15 C           4.8510    0.9040   -0.1250 C.ar    1  UNL1        0.0156
     16 C           4.5840   -0.4640   -0.1550 C.ar    1  UNL1        0.2735
     17 N           5.6390   -1.3900   -0.3230 N.pl3   1  UNL1        0.0796
     18 O           5.3900   -2.5980   -0.3470 O.2     1  UNL1        0.0414
     19 O           6.9230   -0.9590   -0.4570 O.co2   1  UNL1       -0.5760
     20 C           3.2710   -0.8500   -0.0150 C.ar    1  UNL1        0.0202
     21 C          -2.5440    0.9120   -0.4770 C.ar    1  UNL1       -0.0266
     22 H          -6.4952    0.4152   -0.4692 H       1  UNL1        0.2954
     23 H          -5.2341   -0.8818    0.1283 H       1  UNL1        0.0662
     24 H          -4.5445   -3.0423    1.0525 H       1  UNL1        0.2921
     25 H          -1.2305   -1.8804    0.7403 H       1  UNL1        0.0672
     26 H           0.0819    1.2463   -0.4842 H       1  UNL1        0.1464
     27 H           0.7844   -1.4162   -0.3075 H       1  UNL1        0.0511
     28 H           0.6869   -0.7213    1.3263 H       1  UNL1        0.0511
     29 H           1.7500    2.0607    0.2989 H       1  UNL1        0.0621
     30 H           4.0264    2.8139    0.0596 H       1  UNL1        0.0620
     31 H           5.8205    1.2431   -0.2256 H       1  UNL1        0.0685
     32 H           3.0590   -1.8598   -0.0356 H       1  UNL1        0.0688
     33 H          -2.2644    1.8350   -0.8442 H       1  UNL1        0.0644
@<TRIPOS>UNITY_ATOM_ATTR
17 1
charge 1
19 1
charge -1
@<TRIPOS>BOND
     1     1     2    2
     2     2     3    1
     3     2     4    1
     4     4     5   ar
     5     4    21   ar
     6     5     6   ar
     7     6     7    1
     8     6     8   ar
     9     8     9   ar
    10     9    10    1
    11     9    21   ar
    12    10    11    1
    13    11    12    1
    14    12    13   ar
    15    12    20   ar
    16    13    14   ar
    17    14    15   ar
    18    15    16   ar
    19    16    17    1
    20    16    20   ar
    21    17    18    2
    22    17    19    1
    23     3    22    1
    24     5    23    1
    25     7    24    1
    26     8    25    1
    27    10    26    1
    28    11    27    1
    29    11    28    1
    30    13    29    1
    31    14    30    1
    32    15    31    1
    33    20    32    1
    34    21    33    1
@<TRIPOS>MOLECULE
../data/bude_mols_rdkit_confs_charged/molecule_49.pdb
 33 34 0 0 0
SMALL
GASTEIGER

@<TRIPOS>ATOM
      1 O          -4.0220   -3.3750   -0.0570 O.2     1  UNL1       -0.2451
      2 C          -4.5350   -2.2290   -0.0810 C.2     1  UNL1        0.3370
      3 O          -5.8970   -2.0790   -0.1350 O.3     1  UNL1       -0.4771
      4 C          -3.6520   -1.0560   -0.0510 C.ar    1  UNL1        0.0640
      5 C          -4.2220    0.1980   -0.0770 C.ar    1  UNL1       -0.0061
      6 C          -3.4260    1.3170   -0.0500 C.ar    1  UNL1        0.1194
      7 O          -4.0280    2.5620   -0.0780 O.3     1  UNL1       -0.5067
      8 C          -2.0430    1.1510    0.0050 C.ar    1  UNL1        0.0007
      9 C          -1.4790   -0.0930    0.0310 C.ar    1  UNL1        0.0316
     10 N          -0.0710   -0.2430    0.0870 N.pl3   1  UNL1       -0.3396
     11 C           0.7400    0.9490    0.1140 C.3     1  UNL1        0.0346
     12 C           2.1870    0.7240    0.1480 C.ar    1  UNL1       -0.0240
     13 C           3.0030    1.7620    0.6160 C.ar    1  UNL1       -0.0567
     14 C           4.3670    1.6570    0.6840 C.ar    1  UNL1       -0.0550
     15 C           4.9560    0.4860    0.2770 C.ar    1  UNL1        0.0156
     16 C           4.1890   -0.5530   -0.1880 C.ar    1  UNL1        0.2735
     17 N           4.8040   -1.7790   -0.6140 N.pl3   1  UNL1        0.0796
     18 O           4.1100   -2.7090   -1.0310 O.2     1  UNL1        0.0414
     19 O           6.1550   -1.9480   -0.5720 O.co2   1  UNL1       -0.5760
     20 C           2.8120   -0.4320   -0.2510 C.ar    1  UNL1        0.0202
     21 C          -2.2860   -1.1970    0.0030 C.ar    1  UNL1       -0.0266
     22 H          -6.2735   -1.2212   -0.1527 H       1  UNL1        0.2954
     23 H          -5.2485    0.2967   -0.1168 H       1  UNL1        0.0662
     24 H          -4.9618    2.6302   -0.1150 H       1  UNL1        0.2921
     25 H          -1.4337    1.9836    0.0265 H       1  UNL1        0.0672
     26 H           0.3421   -1.1364    0.1069 H       1  UNL1        0.1464
     27 H           0.4727    1.5104    0.9848 H       1  UNL1        0.0511
     28 H           0.5428    1.4605   -0.8049 H       1  UNL1        0.0511
     29 H           2.5584    2.6416    0.9220 H       1  UNL1        0.0621
     30 H           4.9394    2.4413    1.0337 H       1  UNL1        0.0620
     31 H           5.9822    0.3861    0.3209 H       1  UNL1        0.0685
     32 H           2.2471   -1.2209   -0.6025 H       1  UNL1        0.0688
     33 H          -1.8673   -2.1400    0.0225 H       1  UNL1        0.0644
@<TRIPOS>UNITY_ATOM_ATTR
17 1
charge 1
19 1
charge -1
@<TRIPOS>BOND
     1     1     2    2
     2     2     3    1
     3     2     4    1
     4     4     5   ar
     5     4    21   ar
     6     5     6   ar
     7     6     7    1
     8     6     8   ar
     9     8     9   ar
    10     9    10    1
    11     9    21   ar
    12    10    11    1
    13    11    12    1
    14    12    13   ar
    15    12    20   ar
    16    13    14   ar
    17    14    15   ar
    18    15    16   ar
    19    16    17    1
    20    16    20   ar
    21    17    18    2
    22    17    19    1
    23     3    22    1
    24     5    23    1
    25     7    24    1
    26     8    25    1
    27    10    26    1
    28    11    27    1
    29    11    28    1
    30    13    29    1
    31    14    30    1
    32    15    31    1
    33    20    32    1
    34    21    33    1
@<TRIPOS>MOLECULE
../data/bude_mols_rdkit_confs_charged/molecule_49.pdb
 33 34 0 0 0
SMALL
GASTEIGER

@<TRIPOS>ATOM
      1 O          -4.9450   -2.4410    0.4040 O.2     1  UNL1       -0.2451
      2 C          -5.1330   -1.2040    0.2840 C.2     1  UNL1        0.3370
      3 O          -6.4350   -0.7540    0.2780 O.3     1  UNL1       -0.4771
      4 C          -3.9800   -0.3210    0.1600 C.ar    1  UNL1        0.0640
      5 C          -4.0980    1.0460    0.0240 C.ar    1  UNL1       -0.0061
      6 C          -3.0280    1.8860   -0.0930 C.ar    1  UNL1        0.1194
      7 O          -3.1370    3.2690   -0.2310 O.3     1  UNL1       -0.5067
      8 C          -1.7690    1.3360   -0.0750 C.ar    1  UNL1        0.0007
      9 C          -1.5730   -0.0370    0.0590 C.ar    1  UNL1        0.0316
     10 N          -0.2660   -0.5870    0.0750 N.pl3   1  UNL1       -0.3396
     11 C           0.8550    0.2600   -0.0440 C.3     1  UNL1        0.0346
     12 C           2.1790   -0.3520   -0.0220 C.ar    1  UNL1       -0.0240
     13 C           2.4820   -1.6680    0.1030 C.ar    1  UNL1       -0.0567
     14 C           3.8160   -2.0860    0.1050 C.ar    1  UNL1       -0.0550
     15 C           4.8660   -1.2040   -0.0160 C.ar    1  UNL1        0.0156
     16 C           4.5650    0.1350   -0.1430 C.ar    1  UNL1        0.2735
     17 N           5.6080    1.1000   -0.2720 N.pl3   1  UNL1        0.0796
     18 O           5.3270    2.3090   -0.3860 O.2     1  UNL1        0.0414
     19 O           6.9160    0.6840   -0.2690 O.co2   1  UNL1       -0.5760
     20 C           3.2570    0.5350   -0.1440 C.ar    1  UNL1        0.0202
     21 C          -2.7020   -0.8350    0.1740 C.ar    1  UNL1       -0.0266
     22 H          -6.6138    0.1616    0.1904 H       1  UNL1        0.2954
     23 H          -5.0450    1.4559    0.0099 H       1  UNL1        0.0662
     24 H          -3.9822    3.6731   -0.2466 H       1  UNL1        0.2921
     25 H          -0.9481    1.9552   -0.1629 H       1  UNL1        0.0672
     26 H          -0.1415   -1.5590    0.1691 H       1  UNL1        0.1464
     27 H           0.8136    0.9588    0.7653 H       1  UNL1        0.0511
     28 H           0.7703    0.6806   -1.0242 H       1  UNL1        0.0511
     29 H           1.7251   -2.3632    0.1970 H       1  UNL1        0.0621
     30 H           4.0212   -3.0929    0.2007 H       1  UNL1        0.0620
     31 H           5.8439   -1.5337   -0.0118 H       1  UNL1        0.0685
     32 H           3.0535    1.5422   -0.2396 H       1  UNL1        0.0688
     33 H          -2.5795   -1.8548    0.2741 H       1  UNL1        0.0644
@<TRIPOS>UNITY_ATOM_ATTR
17 1
charge 1
19 1
charge -1
@<TRIPOS>BOND
     1     1     2    2
     2     2     3    1
     3     2     4    1
     4     4     5   ar
     5     4    21   ar
     6     5     6   ar
     7     6     7    1
     8     6     8   ar
     9     8     9   ar
    10     9    10    1
    11     9    21   ar
    12    10    11    1
    13    11    12    1
    14    12    13   ar
    15    12    20   ar
    16    13    14   ar
    17    14    15   ar
    18    15    16   ar
    19    16    17    1
    20    16    20   ar
    21    17    18    2
    22    17    19    1
    23     3    22    1
    24     5    23    1
    25     7    24    1
    26     8    25    1
    27    10    26    1
    28    11    27    1
    29    11    28    1
    30    13    29    1
    31    14    30    1
    32    15    31    1
    33    20    32    1
    34    21    33    1
@<TRIPOS>MOLECULE
../data/bude_mols_rdkit_confs_charged/molecule_49.pdb
 33 34 0 0 0
SMALL
GASTEIGER

@<TRIPOS>ATOM
      1 O          -6.0830   -0.0190    1.3240 O.2     1  UNL1       -0.2451
      2 C          -4.9030    0.2980    1.5870 C.2     1  UNL1        0.3370
      3 O          -4.5590    0.9950    2.7470 O.3     1  UNL1       -0.4771
      4 C          -3.8420   -0.0690    0.6570 C.ar    1  UNL1        0.0640
      5 C          -4.1760   -0.7560   -0.4890 C.ar    1  UNL1       -0.0061
      6 C          -3.1970   -1.1160   -1.3860 C.ar    1  UNL1        0.1194
      7 O          -3.5430   -1.8110   -2.5420 O.3     1  UNL1       -0.5067
      8 C          -1.8940   -0.7680   -1.0980 C.ar    1  UNL1        0.0007
      9 C          -1.5160   -0.0800    0.0380 C.ar    1  UNL1        0.0316
     10 N          -0.1510    0.2610    0.2960 N.pl3   1  UNL1       -0.3396
     11 C           0.8340   -0.1370   -0.6710 C.3     1  UNL1        0.0346
     12 C           2.2000    0.2540   -0.3210 C.ar    1  UNL1       -0.0240
     13 C           2.6760    1.4750   -0.7410 C.ar    1  UNL1       -0.0567
     14 C           3.9760    1.8250   -0.3970 C.ar    1  UNL1       -0.0550
     15 C           4.7830    0.9620    0.3570 C.ar    1  UNL1        0.0156
     16 C           4.2960   -0.2590    0.7730 C.ar    1  UNL1        0.2735
     17 N           5.1320   -1.1130    1.5340 N.pl3   1  UNL1        0.0796
     18 O           6.2890   -0.7980    1.8390 O.2     1  UNL1        0.0414
     19 O           4.6540   -2.3270    1.9500 O.co2   1  UNL1       -0.5760
     20 C           2.9990   -0.5900    0.4200 C.ar    1  UNL1        0.0202
     21 C          -2.5130    0.2700    0.9220 C.ar    1  UNL1       -0.0266
     22 H          -3.6637    1.2165    2.9124 H       1  UNL1        0.2954
     23 H          -5.1611   -1.0008   -0.6749 H       1  UNL1        0.0662
     24 H          -4.4389   -2.0312   -2.7058 H       1  UNL1        0.2921
     25 H          -1.1589   -1.0374   -1.7704 H       1  UNL1        0.0672
     26 H           0.1051    0.7524    1.1097 H       1  UNL1        0.1464
     27 H           0.5851    0.3119   -1.6098 H       1  UNL1        0.0511
     28 H           0.8171   -1.2062   -0.7097 H       1  UNL1        0.0511
     29 H           2.0841    2.1128   -1.2959 H       1  UNL1        0.0621
     30 H           4.3537    2.7357   -0.7018 H       1  UNL1        0.0620
     31 H           5.7457    1.2417    0.6018 H       1  UNL1        0.0685
     32 H           2.6172   -1.5000    0.7220 H       1  UNL1        0.0688
     33 H          -2.2768    0.7853    1.7844 H       1  UNL1        0.0644
@<TRIPOS>UNITY_ATOM_ATTR
17 1
charge 1
19 1
charge -1
@<TRIPOS>BOND
     1     1     2    2
     2     2     3    1
     3     2     4    1
     4     4     5   ar
     5     4    21   ar
     6     5     6   ar
     7     6     7    1
     8     6     8   ar
     9     8     9   ar
    10     9    10    1
    11     9    21   ar
    12    10    11    1
    13    11    12    1
    14    12    13   ar
    15    12    20   ar
    16    13    14   ar
    17    14    15   ar
    18    15    16   ar
    19    16    17    1
    20    16    20   ar
    21    17    18    2
    22    17    19    1
    23     3    22    1
    24     5    23    1
    25     7    24    1
    26     8    25    1
    27    10    26    1
    28    11    27    1
    29    11    28    1
    30    13    29    1
    31    14    30    1
    32    15    31    1
    33    20    32    1
    34    21    33    1
