@<TRIPOS>MOLECULE
../data/bude_mols_rdkit_confs_charged/molecule_86.pdb
 45 48 0 0 0
SMALL
GASTEIGER

@<TRIPOS>ATOM
      1  O1        -5.7080    1.7690    1.6590 O.2     1  UNL1       -0.2661
      2  C1        -4.5820    1.1910    1.6630 C.ar    1  UNL1        0.2682
      3  N1        -3.8100    1.0870    2.7500 N.ar    1  UNL1       -0.2427
      4  N2        -2.6460    0.4940    2.7710 N.ar    1  UNL1       -0.1753
      5  C2        -2.1470   -0.0700    1.6270 C.ar    1  UNL1        0.0693
      6  C3        -0.8170   -0.7160    1.6680 C.3     1  UNL1        0.0167
      7  C4         0.2920    0.0660    1.1400 C.ar    1  UNL1       -0.0427
      8  C5         0.7940    1.1260    1.8990 C.ar    1  UNL1       -0.0583
      9  C6         1.8500    1.8260    1.3910 C.ar    1  UNL1       -0.0626
     10  C7         2.4130    1.5120    0.1730 C.ar    1  UNL1       -0.0761
     11  C8         1.9410    0.4770   -0.5940 C.ar    1  UNL1       -0.1289
     12  N3         2.4620    0.1040   -1.8370 N.pl3   1  UNL1       -0.5341
     13  S1         3.7190   -1.0370   -2.0800 S.O2    1  UNL1       -0.0260
     14  O2         4.0400   -1.1700   -3.5370 O.2     1  UNL1       -0.1813
     15  O3         3.3970   -2.3820   -1.5550 O.2     1  UNL1       -0.1813
     16  C9         5.1670   -0.4280   -1.2680 C.ar    1  UNL1        0.2249
     17  C10        5.8370   -1.0930   -0.2560 C.ar    1  UNL1        0.0008
     18  C11        6.8970   -0.2820    0.0920 C.ar    1  UNL1       -0.0220
     19  C12        6.8220    0.8290   -0.7180 C.ar    1  UNL1        0.0942
     20  O4         5.7850    0.7070   -1.5100 O.2     1  UNL1       -0.4472
     21  C13        0.8600   -0.2420   -0.0760 C.ar    1  UNL1       -0.0726
     22  C14       -2.9010    0.0100    0.4860 C.ar    1  UNL1       -0.0158
     23  C15       -2.3940   -0.6060   -0.7620 C.3     1  UNL1       -0.0255
     24  C16       -3.4420   -0.9430   -1.7830 C.3     1  UNL1       -0.0487
     25  C17       -4.8460   -0.6590   -1.3830 C.3     1  UNL1       -0.0486
     26  C18       -4.9410    0.7270   -0.7700 C.3     1  UNL1       -0.0222
     27  C19       -4.1300    0.6430    0.4890 C.ar    1  UNL1        0.0232
     28 H          -4.1402    1.4829    3.5887 H       1  UNL1        0.1921
     29 H          -0.8763   -1.6223    1.1024 H       1  UNL1        0.0377
     30 H          -0.5991   -0.8591    2.7058 H       1  UNL1        0.0377
     31 H           0.3807    1.3713    2.8122 H       1  UNL1        0.0620
     32 H           2.2378    2.6128    1.9346 H       1  UNL1        0.0617
     33 H           3.2102    2.0698   -0.1711 H       1  UNL1        0.0606
     34 H           5.5934   -2.0081    0.1542 H       1  UNL1        0.0669
     35 H           7.6068   -0.4708    0.8170 H       1  UNL1        0.0650
     36 H           7.4757    1.6274   -0.7037 H       1  UNL1        0.1030
     37 H           0.4754   -1.0286   -0.6222 H       1  UNL1        0.0608
     38 H          -1.8840   -1.5097   -0.5011 H       1  UNL1        0.0314
     39 H          -1.7616    0.1268   -1.2180 H       1  UNL1        0.0314
     40 H          -3.3666   -1.9883   -1.9990 H       1  UNL1        0.0268
     41 H          -3.2444   -0.3112   -2.6237 H       1  UNL1        0.0268
     42 H          -5.1641   -1.3863   -0.6656 H       1  UNL1        0.0269
     43 H          -5.4738   -0.7042   -2.2483 H       1  UNL1        0.0269
     44 H          -5.9585    0.9723   -0.5477 H       1  UNL1        0.0315
     45 H          -4.5833    1.4878   -1.4319 H       1  UNL1        0.0315
@<TRIPOS>UNITY_ATOM_ATTR
12 1
charge -1
@<TRIPOS>BOND
     1     1     2    2
     2     2     3   ar
     3     2    27   ar
     4     3     4   ar
     5     4     5   ar
     6     5     6    1
     7     5    22   ar
     8     6     7    1
     9     7     8   ar
    10     7    21   ar
    11     8     9   ar
    12     9    10   ar
    13    10    11   ar
    14    11    12    1
    15    11    21   ar
    16    12    13    1
    17    13    14    2
    18    13    15    2
    19    13    16    1
    20    16    17   ar
    21    16    20   ar
    22    17    18   ar
    23    18    19   ar
    24    19    20   ar
    25    22    23    1
    26    22    27   ar
    27    23    24    1
    28    24    25    1
    29    25    26    1
    30    26    27    1
    31     3    28    1
    32     6    29    1
    33     6    30    1
    34     8    31    1
    35     9    32    1
    36    10    33    1
    37    17    34    1
    38    18    35    1
    39    19    36    1
    40    21    37    1
    41    23    38    1
    42    23    39    1
    43    24    40    1
    44    24    41    1
    45    25    42    1
    46    25    43    1
    47    26    44    1
    48    26    45    1
@<TRIPOS>MOLECULE
../data/bude_mols_rdkit_confs_charged/molecule_86.pdb
 45 48 0 0 0
SMALL
GASTEIGER

@<TRIPOS>ATOM
      1  O1        -2.7820   -3.5350    1.3760 O.2     1  UNL1       -0.2661
      2  C1        -2.2970   -2.6390    0.6120 C.ar    1  UNL1        0.2682
      3  N1        -1.0040   -2.6960    0.2630 N.ar    1  UNL1       -0.2427
      4  N2        -0.4760   -1.7850   -0.5210 N.ar    1  UNL1       -0.1753
      5  C2        -1.2490   -0.7520   -1.0000 C.ar    1  UNL1        0.0693
      6  C3        -0.5880    0.3380   -1.7630 C.3     1  UNL1        0.0167
      7  C4         0.0830    1.2770   -0.8200 C.ar    1  UNL1       -0.0427
      8  C5        -0.5930    2.1830   -0.0720 C.ar    1  UNL1       -0.0583
      9  C6         0.1040    3.0480    0.8030 C.ar    1  UNL1       -0.0626
     10  C7         1.4640    3.0030    0.9220 C.ar    1  UNL1       -0.0761
     11  C8         2.1350    2.0630    0.1410 C.ar    1  UNL1       -0.1289
     12  N3         3.5460    2.0470    0.2560 N.pl3   1  UNL1       -0.5341
     13  S1         4.3250    1.0140    1.3890 S.O2    1  UNL1       -0.0260
     14  O2         3.3060    0.2350    2.1890 O.2     1  UNL1       -0.1813
     15  O3         5.1650    1.8310    2.3220 O.2     1  UNL1       -0.1813
     16  C9         5.3040   -0.1750    0.5460 C.ar    1  UNL1        0.2249
     17  C10        5.4140   -0.2490   -0.8240 C.ar    1  UNL1        0.0008
     18  C11        6.2700   -1.3040   -1.1140 C.ar    1  UNL1       -0.0220
     19  C12        6.6350   -1.8170    0.1070 C.ar    1  UNL1        0.0942
     20  O4         6.0450   -1.1250    1.0590 O.2     1  UNL1       -0.4472
     21  C13        1.4880    1.2180   -0.7080 C.ar    1  UNL1       -0.0726
     22  C14       -2.5670   -0.6700   -0.6670 C.ar    1  UNL1       -0.0158
     23  C15       -3.4320    0.3690   -1.2740 C.3     1  UNL1       -0.0255
     24  C16       -4.6330    0.6410   -0.3570 C.3     1  UNL1       -0.0487
     25  C17       -5.3620   -0.7130   -0.3140 C.3     1  UNL1       -0.0486
     26  C18       -4.5570   -1.6040    0.5990 C.3     1  UNL1       -0.0222
     27  C19       -3.1460   -1.6370    0.1750 C.ar    1  UNL1        0.0232
     28 H          -0.4425   -3.4314    0.5994 H       1  UNL1        0.1921
     29 H          -1.3220    0.8695   -2.3318 H       1  UNL1        0.0377
     30 H           0.1419   -0.0835   -2.4221 H       1  UNL1        0.0377
     31 H          -1.6210    2.2418   -0.1414 H       1  UNL1        0.0620
     32 H          -0.4280    3.7302    1.3656 H       1  UNL1        0.0617
     33 H           1.9713    3.6355    1.5604 H       1  UNL1        0.0606
     34 H           4.9470    0.3655   -1.5090 H       1  UNL1        0.0669
     35 H           6.5677   -1.6318   -2.0462 H       1  UNL1        0.0650
     36 H           7.2701   -2.6169    0.2544 H       1  UNL1        0.1030
     37 H           2.0237    0.5364   -1.2679 H       1  UNL1        0.0608
     38 H          -3.7813    0.0293   -2.2266 H       1  UNL1        0.0314
     39 H          -2.8695    1.2706   -1.3989 H       1  UNL1        0.0314
     40 H          -5.2632    1.4024   -0.7670 H       1  UNL1        0.0268
     41 H          -4.3475    0.9929    0.6123 H       1  UNL1        0.0268
     42 H          -5.4118   -1.1374   -1.2950 H       1  UNL1        0.0269
     43 H          -6.3654   -0.6012    0.0405 H       1  UNL1        0.0269
     44 H          -4.9578   -2.5956    0.5665 H       1  UNL1        0.0315
     45 H          -4.6101   -1.2172    1.5952 H       1  UNL1        0.0315
@<TRIPOS>UNITY_ATOM_ATTR
12 1
charge -1
@<TRIPOS>BOND
     1     1     2    2
     2     2     3   ar
     3     2    27   ar
     4     3     4   ar
     5     4     5   ar
     6     5     6    1
     7     5    22   ar
     8     6     7    1
     9     7     8   ar
    10     7    21   ar
    11     8     9   ar
    12     9    10   ar
    13    10    11   ar
    14    11    12    1
    15    11    21   ar
    16    12    13    1
    17    13    14    2
    18    13    15    2
    19    13    16    1
    20    16    17   ar
    21    16    20   ar
    22    17    18   ar
    23    18    19   ar
    24    19    20   ar
    25    22    23    1
    26    22    27   ar
    27    23    24    1
    28    24    25    1
    29    25    26    1
    30    26    27    1
    31     3    28    1
    32     6    29    1
    33     6    30    1
    34     8    31    1
    35     9    32    1
    36    10    33    1
    37    17    34    1
    38    18    35    1
    39    19    36    1
    40    21    37    1
    41    23    38    1
    42    23    39    1
    43    24    40    1
    44    24    41    1
    45    25    42    1
    46    25    43    1
    47    26    44    1
    48    26    45    1
@<TRIPOS>MOLECULE
../data/bude_mols_rdkit_confs_charged/molecule_86.pdb
 45 48 0 0 0
SMALL
GASTEIGER

@<TRIPOS>ATOM
      1  O1        -5.5790   -1.9110   -0.9630 O.2     1  UNL1       -0.2661
      2  C1        -4.3220   -1.7630   -0.8330 C.ar    1  UNL1        0.2682
      3  N1        -3.5490   -2.7980   -0.4240 N.ar    1  UNL1       -0.2427
      4  N2        -2.2380   -2.6980   -0.2720 N.ar    1  UNL1       -0.1753
      5  C2        -1.5530   -1.5320   -0.5170 C.ar    1  UNL1        0.0693
      6  C3        -0.1500   -1.5270   -0.2970 C.3     1  UNL1        0.0167
      7  C4         0.4630   -0.9990    0.8660 C.ar    1  UNL1       -0.0427
      8  C5         0.4570   -1.7360    2.0590 C.ar    1  UNL1       -0.0583
      9  C6         1.0530   -1.2650    3.2000 C.ar    1  UNL1       -0.0626
     10  C7         1.6830   -0.0440    3.2210 C.ar    1  UNL1       -0.0761
     11  C8         1.7040    0.6980    2.0670 C.ar    1  UNL1       -0.1289
     12  N3         2.3480    1.9670    2.0520 N.pl3   1  UNL1       -0.5341
     13  S1         4.0140    2.1700    1.6580 S.O2    1  UNL1       -0.0260
     14  O2         4.3140    3.6470    1.7590 O.2     1  UNL1       -0.1813
     15  O3         4.8160    1.4220    2.6550 O.2     1  UNL1       -0.1813
     16  C9         4.3570    1.6400    0.0280 C.ar    1  UNL1        0.2249
     17  C10        5.2540    0.6310   -0.2820 C.ar    1  UNL1        0.0008
     18  C11        5.2400    0.5160   -1.6440 C.ar    1  UNL1       -0.0220
     19  C12        4.3350    1.4570   -2.1270 C.ar    1  UNL1        0.0942
     20  O4         3.8380    2.1000   -1.0770 O.2     1  UNL1       -0.4472
     21  C13        1.1030    0.2090    0.9370 C.ar    1  UNL1       -0.0726
     22  C14       -2.2930   -0.4990   -0.9220 C.ar    1  UNL1       -0.0158
     23  C15       -1.7230    0.7850   -1.2420 C.3     1  UNL1       -0.0255
     24  C16       -2.5020    1.8230   -0.4190 C.3     1  UNL1       -0.0487
     25  C17       -3.8850    1.8940   -0.9760 C.3     1  UNL1       -0.0486
     26  C18       -4.4350    0.6140   -1.5340 C.3     1  UNL1       -0.0222
     27  C19       -3.6930   -0.5760   -1.0920 C.ar    1  UNL1        0.0232
     28 H          -3.9811   -3.6615   -0.2316 H       1  UNL1        0.1921
     29 H           0.2716   -0.9871   -1.1190 H       1  UNL1        0.0377
     30 H           0.0429   -2.5724   -0.1747 H       1  UNL1        0.0377
     31 H          -0.0082   -2.6570    2.0784 H       1  UNL1        0.0620
     32 H           1.0281   -1.8374    4.0583 H       1  UNL1        0.0617
     33 H           2.1292    0.3062    4.0832 H       1  UNL1        0.0606
     34 H           5.8188    0.0778    0.3814 H       1  UNL1        0.0669
     35 H           5.7963   -0.1449   -2.2086 H       1  UNL1        0.0650
     36 H           4.0951    1.6238   -3.1168 H       1  UNL1        0.1030
     37 H           1.1349    0.7890    0.0840 H       1  UNL1        0.0608
     38 H          -1.8289    0.9867   -2.2875 H       1  UNL1        0.0314
     39 H          -0.6782    0.8134   -1.0131 H       1  UNL1        0.0314
     40 H          -2.0283    2.7794   -0.4953 H       1  UNL1        0.0268
     41 H          -2.5263    1.5429    0.6134 H       1  UNL1        0.0268
     42 H          -3.8848    2.6204   -1.7616 H       1  UNL1        0.0269
     43 H          -4.5169    2.1439   -0.1494 H       1  UNL1        0.0269
     44 H          -4.3940    0.6632   -2.6021 H       1  UNL1        0.0315
     45 H          -5.4380    0.5152   -1.1747 H       1  UNL1        0.0315
@<TRIPOS>UNITY_ATOM_ATTR
12 1
charge -1
@<TRIPOS>BOND
     1     1     2    2
     2     2     3   ar
     3     2    27   ar
     4     3     4   ar
     5     4     5   ar
     6     5     6    1
     7     5    22   ar
     8     6     7    1
     9     7     8   ar
    10     7    21   ar
    11     8     9   ar
    12     9    10   ar
    13    10    11   ar
    14    11    12    1
    15    11    21   ar
    16    12    13    1
    17    13    14    2
    18    13    15    2
    19    13    16    1
    20    16    17   ar
    21    16    20   ar
    22    17    18   ar
    23    18    19   ar
    24    19    20   ar
    25    22    23    1
    26    22    27   ar
    27    23    24    1
    28    24    25    1
    29    25    26    1
    30    26    27    1
    31     3    28    1
    32     6    29    1
    33     6    30    1
    34     8    31    1
    35     9    32    1
    36    10    33    1
    37    17    34    1
    38    18    35    1
    39    19    36    1
    40    21    37    1
    41    23    38    1
    42    23    39    1
    43    24    40    1
    44    24    41    1
    45    25    42    1
    46    25    43    1
    47    26    44    1
    48    26    45    1
@<TRIPOS>MOLECULE
../data/bude_mols_rdkit_confs_charged/molecule_86.pdb
 45 48 0 0 0
SMALL
GASTEIGER

@<TRIPOS>ATOM
      1  O1        -1.8190    3.2260   -2.3410 O.2     1  UNL1       -0.2661
      2  C1        -1.4510    2.0680   -2.0850 C.ar    1  UNL1        0.2682
      3  N1        -0.2200    1.6550   -2.4040 N.ar    1  UNL1       -0.2427
      4  N2         0.2510    0.4460   -2.1700 N.ar    1  UNL1       -0.1753
      5  C2        -0.5090   -0.5140   -1.5600 C.ar    1  UNL1        0.0693
      6  C3         0.0990   -1.8180   -1.3450 C.3     1  UNL1        0.0167
      7  C4         0.5610   -2.1080    0.0160 C.ar    1  UNL1       -0.0427
      8  C5        -0.1170   -2.7670    0.9910 C.ar    1  UNL1       -0.0583
      9  C6         0.4200   -2.9830    2.2460 C.ar    1  UNL1       -0.0626
     10  C7         1.6670   -2.5300    2.5360 C.ar    1  UNL1       -0.0761
     11  C8         2.3930   -1.8590    1.5880 C.ar    1  UNL1       -0.1289
     12  N3         3.7090   -1.4040    1.9170 N.pl3   1  UNL1       -0.5341
     13  S1         3.9830    0.1470    2.5750 S.O2    1  UNL1       -0.0260
     14  O2         5.4850    0.2840    2.7800 O.2     1  UNL1       -0.1813
     15  O3         3.3080    0.3290    3.9200 O.2     1  UNL1       -0.1813
     16  C9         3.4600    1.3940    1.4450 C.ar    1  UNL1        0.2249
     17  C10        4.2800    2.3850    0.8850 C.ar    1  UNL1        0.0008
     18  C11        3.5160    3.1720    0.0510 C.ar    1  UNL1       -0.0220
     19  C12        2.2470    2.6300    0.1340 C.ar    1  UNL1        0.0942
     20  O4         2.2730    1.6110    0.9470 O.2     1  UNL1       -0.4472
     21  C13        1.8380   -1.6540    0.3440 C.ar    1  UNL1       -0.0726
     22  C14       -1.7780   -0.1400   -1.2140 C.ar    1  UNL1       -0.0158
     23  C15       -2.6530   -1.1490   -0.5480 C.3     1  UNL1       -0.0255
     24  C16       -4.1050   -0.7960   -0.8280 C.3     1  UNL1       -0.0487
     25  C17       -4.3180    0.5810   -0.2410 C.3     1  UNL1       -0.0486
     26  C18       -3.6340    1.5870   -1.1130 C.3     1  UNL1       -0.0222
     27  C19       -2.2870    1.1380   -1.4580 C.ar    1  UNL1        0.0232
     28 H           0.3780    2.3004   -2.8456 H       1  UNL1        0.1921
     29 H           0.9431   -1.8948   -1.9981 H       1  UNL1        0.0377
     30 H          -0.6780   -2.5280   -1.5376 H       1  UNL1        0.0377
     31 H          -1.0658   -3.1185    0.7877 H       1  UNL1        0.0620
     32 H          -0.1258   -3.4878    2.9617 H       1  UNL1        0.0617
     33 H           2.0685   -2.6917    3.4728 H       1  UNL1        0.0606
     34 H           5.2886    2.5048    1.0675 H       1  UNL1        0.0669
     35 H           3.8220    3.9829   -0.5091 H       1  UNL1        0.0650
     36 H           1.4136    2.9761   -0.3667 H       1  UNL1        0.1030
     37 H           2.3856   -1.1475   -0.3691 H       1  UNL1        0.0608
     38 H          -2.4768   -1.1377    0.5073 H       1  UNL1        0.0314
     39 H          -2.4360   -2.1260   -0.9264 H       1  UNL1        0.0314
     40 H          -4.7569   -1.5044   -0.3610 H       1  UNL1        0.0268
     41 H          -4.3180   -0.8131   -1.8764 H       1  UNL1        0.0268
     42 H          -3.9048    0.6196    0.7452 H       1  UNL1        0.0269
     43 H          -5.3648    0.7965   -0.1888 H       1  UNL1        0.0269
     44 H          -3.5711    2.5192   -0.5916 H       1  UNL1        0.0315
     45 H          -4.1997    1.7038   -2.0137 H       1  UNL1        0.0315
@<TRIPOS>UNITY_ATOM_ATTR
12 1
charge -1
@<TRIPOS>BOND
     1     1     2    2
     2     2     3   ar
     3     2    27   ar
     4     3     4   ar
     5     4     5   ar
     6     5     6    1
     7     5    22   ar
     8     6     7    1
     9     7     8   ar
    10     7    21   ar
    11     8     9   ar
    12     9    10   ar
    13    10    11   ar
    14    11    12    1
    15    11    21   ar
    16    12    13    1
    17    13    14    2
    18    13    15    2
    19    13    16    1
    20    16    17   ar
    21    16    20   ar
    22    17    18   ar
    23    18    19   ar
    24    19    20   ar
    25    22    23    1
    26    22    27   ar
    27    23    24    1
    28    24    25    1
    29    25    26    1
    30    26    27    1
    31     3    28    1
    32     6    29    1
    33     6    30    1
    34     8    31    1
    35     9    32    1
    36    10    33    1
    37    17    34    1
    38    18    35    1
    39    19    36    1
    40    21    37    1
    41    23    38    1
    42    23    39    1
    43    24    40    1
    44    24    41    1
    45    25    42    1
    46    25    43    1
    47    26    44    1
    48    26    45    1
@<TRIPOS>MOLECULE
../data/bude_mols_rdkit_confs_charged/molecule_86.pdb
 45 48 0 0 0
SMALL
GASTEIGER

@<TRIPOS>ATOM
      1  O1        -5.5160    2.8180   -0.1090 O.2     1  UNL1       -0.2661
      2  C1        -4.5050    2.1440   -0.4090 C.ar    1  UNL1        0.2682
      3  N1        -3.5350    2.6450   -1.2170 N.ar    1  UNL1       -0.2427
      4  N2        -2.4760    1.9390   -1.5280 N.ar    1  UNL1       -0.1753
      5  C2        -2.2640    0.6890   -1.0860 C.ar    1  UNL1        0.0693
      6  C3        -1.0120   -0.0090   -1.4080 C.3     1  UNL1        0.0167
      7  C4         0.0660    0.2780   -0.4180 C.ar    1  UNL1       -0.0427
      8  C5        -0.1110    0.5100    0.9130 C.ar    1  UNL1       -0.0583
      9  C6         0.9650    0.7520    1.7650 C.ar    1  UNL1       -0.0626
     10  C7         2.2350    0.7570    1.2400 C.ar    1  UNL1       -0.0761
     11  C8         2.4680    0.5310   -0.0890 C.ar    1  UNL1       -0.1289
     12  N3         3.7440    0.5180   -0.7050 N.pl3   1  UNL1       -0.5341
     13  S1         4.7290   -0.8750   -0.8710 S.O2    1  UNL1       -0.0260
     14  O2         3.9790   -2.1370   -0.4870 O.2     1  UNL1       -0.1813
     15  O3         5.1010   -1.0110   -2.3210 O.2     1  UNL1       -0.1813
     16  C9         6.1830   -0.7310    0.0930 C.ar    1  UNL1        0.2249
     17  C10        6.5270    0.3430    0.8840 C.ar    1  UNL1        0.0008
     18  C11        7.7420    0.0370    1.4570 C.ar    1  UNL1       -0.0220
     19  C12        8.0950   -1.2050    0.9990 C.ar    1  UNL1        0.0942
     20  O4         7.1440   -1.6140    0.2000 O.2     1  UNL1       -0.4472
     21  C13        1.3780    0.2940   -0.9010 C.ar    1  UNL1       -0.0726
     22  C14       -3.2380    0.1140   -0.2470 C.ar    1  UNL1       -0.0158
     23  C15       -3.0510   -1.2730    0.1770 C.3     1  UNL1       -0.0255
     24  C16       -4.2210   -1.7790    0.9500 C.3     1  UNL1       -0.0487
     25  C17       -5.5270   -1.1250    0.6450 C.3     1  UNL1       -0.0486
     26  C18       -5.4490    0.3670    0.9600 C.3     1  UNL1       -0.0222
     27  C19       -4.3440    0.8680    0.0720 C.ar    1  UNL1        0.0232
     28 H          -3.6295    3.5568   -1.5761 H       1  UNL1        0.1921
     29 H          -0.6823    0.3046   -2.3765 H       1  UNL1        0.0377
     30 H          -1.2076   -1.0607   -1.3837 H       1  UNL1        0.0377
     31 H          -1.0675    0.5064    1.3005 H       1  UNL1        0.0620
     32 H           0.8110    0.9241    2.7708 H       1  UNL1        0.0617
     33 H           3.0356    0.9363    1.8660 H       1  UNL1        0.0606
     34 H           5.9811    1.2081    1.0207 H       1  UNL1        0.0669
     35 H           8.2824    0.6296    2.1065 H       1  UNL1        0.0650
     36 H           8.9543   -1.7231    1.2404 H       1  UNL1        0.1030
     37 H           1.5376    0.1215   -1.9059 H       1  UNL1        0.0608
     38 H          -2.1777   -1.3321    0.7924 H       1  UNL1        0.0314
     39 H          -2.9457   -1.8771   -0.6998 H       1  UNL1        0.0314
     40 H          -4.0156   -1.6347    1.9901 H       1  UNL1        0.0268
     41 H          -4.3352   -2.8053    0.6698 H       1  UNL1        0.0268
     42 H          -6.2953   -1.5732    1.2397 H       1  UNL1        0.0269
     43 H          -5.7508   -1.2539   -0.3934 H       1  UNL1        0.0269
     44 H          -5.2105    0.5263    1.9909 H       1  UNL1        0.0315
     45 H          -6.3762    0.8732    0.7898 H       1  UNL1        0.0315
@<TRIPOS>UNITY_ATOM_ATTR
12 1
charge -1
@<TRIPOS>BOND
     1     1     2    2
     2     2     3   ar
     3     2    27   ar
     4     3     4   ar
     5     4     5   ar
     6     5     6    1
     7     5    22   ar
     8     6     7    1
     9     7     8   ar
    10     7    21   ar
    11     8     9   ar
    12     9    10   ar
    13    10    11   ar
    14    11    12    1
    15    11    21   ar
    16    12    13    1
    17    13    14    2
    18    13    15    2
    19    13    16    1
    20    16    17   ar
    21    16    20   ar
    22    17    18   ar
    23    18    19   ar
    24    19    20   ar
    25    22    23    1
    26    22    27   ar
    27    23    24    1
    28    24    25    1
    29    25    26    1
    30    26    27    1
    31     3    28    1
    32     6    29    1
    33     6    30    1
    34     8    31    1
    35     9    32    1
    36    10    33    1
    37    17    34    1
    38    18    35    1
    39    19    36    1
    40    21    37    1
    41    23    38    1
    42    23    39    1
    43    24    40    1
    44    24    41    1
    45    25    42    1
    46    25    43    1
    47    26    44    1
    48    26    45    1
@<TRIPOS>MOLECULE
../data/bude_mols_rdkit_confs_charged/molecule_86.pdb
 45 48 0 0 0
SMALL
GASTEIGER

@<TRIPOS>ATOM
      1  O1        -2.9560    3.4300   -0.5350 O.2     1  UNL1       -0.2661
      2  C1        -2.6900    2.2050   -0.6490 C.ar    1  UNL1        0.2682
      3  N1        -2.4640    1.6770   -1.8600 N.ar    1  UNL1       -0.2427
      4  N2        -2.1900    0.3930   -1.9240 N.ar    1  UNL1       -0.1753
      5  C2        -2.1240   -0.4210   -0.8460 C.ar    1  UNL1        0.0693
      6  C3        -1.7550   -1.8610   -1.0100 C.3     1  UNL1        0.0167
      7  C4        -0.3050   -1.9850   -0.7130 C.ar    1  UNL1       -0.0427
      8  C5         0.1680   -2.5130    0.4480 C.ar    1  UNL1       -0.0583
      9  C6         1.5470   -2.5780    0.6510 C.ar    1  UNL1       -0.0626
     10  C7         2.4210   -2.1150   -0.3130 C.ar    1  UNL1       -0.0761
     11  C8         1.9680   -1.5760   -1.4980 C.ar    1  UNL1       -0.1289
     12  N3         2.9070   -1.1160   -2.4530 N.pl3   1  UNL1       -0.5341
     13  S1         3.5030    0.5000   -2.4790 S.O2    1  UNL1       -0.0260
     14  O2         2.4030    1.4910   -2.6540 O.2     1  UNL1       -0.1813
     15  O3         4.5060    0.6230   -3.5860 O.2     1  UNL1       -0.1813
     16  C9         4.3350    0.7710   -0.9530 C.ar    1  UNL1        0.2249
     17  C10        4.0300    1.7180   -0.0070 C.ar    1  UNL1        0.0008
     18  C11        4.9550    1.5450    1.0080 C.ar    1  UNL1       -0.0220
     19  C12        5.7810    0.5010    0.6350 C.ar    1  UNL1        0.0942
     20  O4         5.3690    0.0820   -0.5310 O.2     1  UNL1       -0.4472
     21  C13        0.6030   -1.5300   -1.6590 C.ar    1  UNL1       -0.0726
     22  C14       -2.3480    0.0720    0.4020 C.ar    1  UNL1       -0.0158
     23  C15       -2.3460   -0.7190    1.6550 C.3     1  UNL1       -0.0255
     24  C16       -3.6330   -0.3190    2.4040 C.3     1  UNL1       -0.0487
     25  C17       -3.7150    1.1390    2.6890 C.3     1  UNL1       -0.0486
     26  C18       -2.8690    2.0210    1.8440 C.3     1  UNL1       -0.0222
     27  C19       -2.6410    1.4310    0.5160 C.ar    1  UNL1        0.0232
     28 H          -2.5019    2.2312   -2.6728 H       1  UNL1        0.1921
     29 H          -1.9510   -2.1767   -2.0134 H       1  UNL1        0.0377
     30 H          -2.3297   -2.4757   -0.3492 H       1  UNL1        0.0377
     31 H          -0.4839   -2.8606    1.1686 H       1  UNL1        0.0620
     32 H           1.9169   -2.9753    1.5287 H       1  UNL1        0.0617
     33 H           3.4370   -2.1740   -0.1421 H       1  UNL1        0.0606
     34 H           3.2691    2.4142   -0.0448 H       1  UNL1        0.0669
     35 H           5.0166    2.0930    1.8803 H       1  UNL1        0.0650
     36 H           6.5743    0.1237    1.1765 H       1  UNL1        0.1030
     37 H           0.2314   -1.1332   -2.5362 H       1  UNL1        0.0608
     38 H          -1.4837   -0.4836    2.2432 H       1  UNL1        0.0314
     39 H          -2.3147   -1.7702    1.4580 H       1  UNL1        0.0314
     40 H          -3.6651   -0.8496    3.3326 H       1  UNL1        0.0268
     41 H          -4.4596   -0.5668    1.7714 H       1  UNL1        0.0268
     42 H          -3.4267    1.2891    3.7084 H       1  UNL1        0.0269
     43 H          -4.7251    1.4170    2.4715 H       1  UNL1        0.0269
     44 H          -1.9256    2.1663    2.3274 H       1  UNL1        0.0315
     45 H          -3.3767    2.9542    1.7161 H       1  UNL1        0.0315
@<TRIPOS>UNITY_ATOM_ATTR
12 1
charge -1
@<TRIPOS>BOND
     1     1     2    2
     2     2     3   ar
     3     2    27   ar
     4     3     4   ar
     5     4     5   ar
     6     5     6    1
     7     5    22   ar
     8     6     7    1
     9     7     8   ar
    10     7    21   ar
    11     8     9   ar
    12     9    10   ar
    13    10    11   ar
    14    11    12    1
    15    11    21   ar
    16    12    13    1
    17    13    14    2
    18    13    15    2
    19    13    16    1
    20    16    17   ar
    21    16    20   ar
    22    17    18   ar
    23    18    19   ar
    24    19    20   ar
    25    22    23    1
    26    22    27   ar
    27    23    24    1
    28    24    25    1
    29    25    26    1
    30    26    27    1
    31     3    28    1
    32     6    29    1
    33     6    30    1
    34     8    31    1
    35     9    32    1
    36    10    33    1
    37    17    34    1
    38    18    35    1
    39    19    36    1
    40    21    37    1
    41    23    38    1
    42    23    39    1
    43    24    40    1
    44    24    41    1
    45    25    42    1
    46    25    43    1
    47    26    44    1
    48    26    45    1
@<TRIPOS>MOLECULE
../data/bude_mols_rdkit_confs_charged/molecule_86.pdb
 45 48 0 0 0
SMALL
GASTEIGER

@<TRIPOS>ATOM
      1  O1        -4.5220    2.8750   -1.4150 O.2     1  UNL1       -0.2661
      2  C1        -3.5060    2.3900   -0.8460 C.ar    1  UNL1        0.2682
      3  N1        -2.2870    2.9290   -0.9790 N.ar    1  UNL1       -0.2427
      4  N2        -1.2350    2.4090   -0.3760 N.ar    1  UNL1       -0.1753
      5  C2        -1.3310    1.3040    0.4070 C.ar    1  UNL1        0.0693
      6  C3        -0.1710    0.7040    1.0470 C.3     1  UNL1        0.0167
      7  C4         0.4390   -0.4300    0.3020 C.ar    1  UNL1       -0.0427
      8  C5        -0.1840   -1.1220   -0.7110 C.ar    1  UNL1       -0.0583
      9  C6         0.3900   -2.1780   -1.3850 C.ar    1  UNL1       -0.0626
     10  C7         1.6610   -2.5700   -1.0290 C.ar    1  UNL1       -0.0761
     11  C8         2.3080   -1.8970   -0.0210 C.ar    1  UNL1       -0.1289
     12  N3         3.6210   -2.3470    0.3000 N.pl3   1  UNL1       -0.5341
     13  S1         4.9760   -1.6780   -0.5100 S.O2    1  UNL1       -0.0260
     14  O2         6.2620   -2.2860    0.0130 O.2     1  UNL1       -0.1813
     15  O3         4.9000   -1.9290   -2.0000 O.2     1  UNL1       -0.1813
     16  C9         5.0380    0.0400   -0.1720 C.ar    1  UNL1        0.2249
     17  C10        6.0610    0.7530    0.4470 C.ar    1  UNL1        0.0008
     18  C11        5.6670    2.0690    0.4930 C.ar    1  UNL1       -0.0220
     19  C12        4.4130    2.1080   -0.1030 C.ar    1  UNL1        0.0942
     20  O4         4.0850    0.9100   -0.4740 O.2     1  UNL1       -0.4472
     21  C13        1.7200   -0.8360    0.6500 C.ar    1  UNL1       -0.0726
     22  C14       -2.5770    0.7410    0.5540 C.ar    1  UNL1       -0.0158
     23  C15       -2.7340   -0.4480    1.4280 C.3     1  UNL1       -0.0255
     24  C16       -3.6440   -1.4210    0.6980 C.3     1  UNL1       -0.0487
     25  C17       -4.9250   -0.8430    0.2320 C.3     1  UNL1       -0.0486
     26  C18       -5.0060    0.6370    0.1380 C.3     1  UNL1       -0.0222
     27  C19       -3.6950    1.2550   -0.0580 C.ar    1  UNL1        0.0232
     28 H          -2.1736    3.7307   -1.5390 H       1  UNL1        0.1921
     29 H          -0.4706    0.3462    2.0099 H       1  UNL1        0.0377
     30 H           0.5756    1.4691    1.0928 H       1  UNL1        0.0377
     31 H          -1.1370   -0.8333   -0.9819 H       1  UNL1        0.0620
     32 H          -0.1208   -2.6636   -2.1389 H       1  UNL1        0.0617
     33 H           2.1208   -3.3576   -1.5121 H       1  UNL1        0.0606
     34 H           6.9485    0.3661    0.8042 H       1  UNL1        0.0669
     35 H           6.1937    2.8635    0.8884 H       1  UNL1        0.0650
     36 H           3.8357    2.9540   -0.2299 H       1  UNL1        0.1030
     37 H           2.2315   -0.3509    1.4037 H       1  UNL1        0.0608
     38 H          -3.1743   -0.1626    2.3605 H       1  UNL1        0.0314
     39 H          -1.7849   -0.8964    1.6357 H       1  UNL1        0.0314
     40 H          -3.8660   -2.2307    1.3613 H       1  UNL1        0.0268
     41 H          -3.1148   -1.7274   -0.1800 H       1  UNL1        0.0268
     42 H          -5.6888   -1.1651    0.9086 H       1  UNL1        0.0269
     43 H          -5.0352   -1.1903   -0.7740 H       1  UNL1        0.0269
     44 H          -5.4329    1.0161    1.0429 H       1  UNL1        0.0315
     45 H          -5.6108    0.8777   -0.7112 H       1  UNL1        0.0315
@<TRIPOS>UNITY_ATOM_ATTR
12 1
charge -1
@<TRIPOS>BOND
     1     1     2    2
     2     2     3   ar
     3     2    27   ar
     4     3     4   ar
     5     4     5   ar
     6     5     6    1
     7     5    22   ar
     8     6     7    1
     9     7     8   ar
    10     7    21   ar
    11     8     9   ar
    12     9    10   ar
    13    10    11   ar
    14    11    12    1
    15    11    21   ar
    16    12    13    1
    17    13    14    2
    18    13    15    2
    19    13    16    1
    20    16    17   ar
    21    16    20   ar
    22    17    18   ar
    23    18    19   ar
    24    19    20   ar
    25    22    23    1
    26    22    27   ar
    27    23    24    1
    28    24    25    1
    29    25    26    1
    30    26    27    1
    31     3    28    1
    32     6    29    1
    33     6    30    1
    34     8    31    1
    35     9    32    1
    36    10    33    1
    37    17    34    1
    38    18    35    1
    39    19    36    1
    40    21    37    1
    41    23    38    1
    42    23    39    1
    43    24    40    1
    44    24    41    1
    45    25    42    1
    46    25    43    1
    47    26    44    1
    48    26    45    1
@<TRIPOS>MOLECULE
../data/bude_mols_rdkit_confs_charged/molecule_86.pdb
 45 48 0 0 0
SMALL
GASTEIGER

@<TRIPOS>ATOM
      1  O1        -4.1080    0.1020    3.1320 O.2     1  UNL1       -0.2661
      2  C1        -3.5360    0.5750    2.1380 C.ar    1  UNL1        0.2682
      3  N1        -3.3420    1.8930    2.0090 N.ar    1  UNL1       -0.2427
      4  N2        -2.7390    2.3910    0.9630 N.ar    1  UNL1       -0.1753
      5  C2        -2.2690    1.6250   -0.0590 C.ar    1  UNL1        0.0693
      6  C3        -1.5600    2.2900   -1.1750 C.3     1  UNL1        0.0167
      7  C4        -0.0890    2.1870   -0.9490 C.ar    1  UNL1       -0.0427
      8  C5         0.5110    3.0870   -0.0590 C.ar    1  UNL1       -0.0583
      9  C6         1.8590    3.0820    0.2100 C.ar    1  UNL1       -0.0626
     10  C7         2.6380    2.1310   -0.4450 C.ar    1  UNL1       -0.0761
     11  C8         2.1130    1.2230   -1.3270 C.ar    1  UNL1       -0.1289
     12  N3         2.9090    0.2940   -2.0130 N.pl3   1  UNL1       -0.5341
     13  S1         3.2460   -1.2950   -1.5940 S.O2    1  UNL1       -0.0260
     14  O2         3.9890   -2.0240   -2.7210 O.2     1  UNL1       -0.1813
     15  O3         1.8950   -2.0190   -1.4610 O.2     1  UNL1       -0.1813
     16  C9         4.0750   -1.5660   -0.1100 C.ar    1  UNL1        0.2249
     17  C10        4.5380   -0.6900    0.8130 C.ar    1  UNL1        0.0008
     18  C11        5.1370   -1.4450    1.8340 C.ar    1  UNL1       -0.0220
     19  C12        4.9870   -2.7490    1.4410 C.ar    1  UNL1        0.0942
     20  O4         4.3690   -2.7940    0.3110 O.2     1  UNL1       -0.4472
     21  C13        0.7240    1.2770   -1.5620 C.ar    1  UNL1       -0.0726
     22  C14       -2.4470    0.2740    0.0320 C.ar    1  UNL1       -0.0158
     23  C15       -1.9950   -0.6140   -1.0580 C.3     1  UNL1       -0.0255
     24  C16       -3.0930   -1.6810   -1.2300 C.3     1  UNL1       -0.0487
     25  C17       -3.0710   -2.5120    0.0080 C.3     1  UNL1       -0.0486
     26  C18       -3.2750   -1.7470    1.2630 C.3     1  UNL1       -0.0222
     27  C19       -3.0740   -0.2660    1.1170 C.ar    1  UNL1        0.0232
     28 H          -3.6601    2.4991    2.7166 H       1  UNL1        0.1921
     29 H          -1.8448    3.3206   -1.2170 H       1  UNL1        0.0377
     30 H          -1.8169    1.8156   -2.0990 H       1  UNL1        0.0377
     31 H          -0.0846    3.7838    0.4151 H       1  UNL1        0.0620
     32 H           2.2770    3.7557    0.8706 H       1  UNL1        0.0617
     33 H           3.6527    2.1093   -0.2583 H       1  UNL1        0.0606
     34 H           4.4644    0.3386    0.7734 H       1  UNL1        0.0669
     35 H           5.5907   -1.0947    2.6922 H       1  UNL1        0.0650
     36 H           5.3187   -3.5708    1.9699 H       1  UNL1        0.1030
     37 H           0.3057    0.6032   -2.2224 H       1  UNL1        0.0608
     38 H          -1.0661   -1.0769   -0.7976 H       1  UNL1        0.0314
     39 H          -1.8380   -0.0679   -1.9647 H       1  UNL1        0.0314
     40 H          -2.8879   -2.2882   -2.0868 H       1  UNL1        0.0268
     41 H          -4.0521   -1.2301   -1.3772 H       1  UNL1        0.0268
     42 H          -2.1216   -3.0021    0.0653 H       1  UNL1        0.0269
     43 H          -3.8897   -3.1967   -0.0690 H       1  UNL1        0.0269
     44 H          -2.5830   -2.1097    1.9940 H       1  UNL1        0.0315
     45 H          -4.2949   -1.8933    1.5516 H       1  UNL1        0.0315
@<TRIPOS>UNITY_ATOM_ATTR
12 1
charge -1
@<TRIPOS>BOND
     1     1     2    2
     2     2     3   ar
     3     2    27   ar
     4     3     4   ar
     5     4     5   ar
     6     5     6    1
     7     5    22   ar
     8     6     7    1
     9     7     8   ar
    10     7    21   ar
    11     8     9   ar
    12     9    10   ar
    13    10    11   ar
    14    11    12    1
    15    11    21   ar
    16    12    13    1
    17    13    14    2
    18    13    15    2
    19    13    16    1
    20    16    17   ar
    21    16    20   ar
    22    17    18   ar
    23    18    19   ar
    24    19    20   ar
    25    22    23    1
    26    22    27   ar
    27    23    24    1
    28    24    25    1
    29    25    26    1
    30    26    27    1
    31     3    28    1
    32     6    29    1
    33     6    30    1
    34     8    31    1
    35     9    32    1
    36    10    33    1
    37    17    34    1
    38    18    35    1
    39    19    36    1
    40    21    37    1
    41    23    38    1
    42    23    39    1
    43    24    40    1
    44    24    41    1
    45    25    42    1
    46    25    43    1
    47    26    44    1
    48    26    45    1
@<TRIPOS>MOLECULE
../data/bude_mols_rdkit_confs_charged/molecule_86.pdb
 45 48 0 0 0
SMALL
GASTEIGER

@<TRIPOS>ATOM
      1  O1        -4.8060    2.7600    0.5200 O.2     1  UNL1       -0.2661
      2  C1        -3.9050    1.9360    0.1400 C.ar    1  UNL1        0.2682
      3  N1        -2.6610    2.4100   -0.0840 N.ar    1  UNL1       -0.2427
      4  N2        -1.6960    1.6020   -0.4790 N.ar    1  UNL1       -0.1753
      5  C2        -1.8870    0.2790   -0.6790 C.ar    1  UNL1        0.0693
      6  C3        -0.7320   -0.5130   -1.1180 C.3     1  UNL1        0.0167
      7  C4         0.5150    0.1680   -0.6410 C.ar    1  UNL1       -0.0427
      8  C5         0.9680    1.2360   -1.4190 C.ar    1  UNL1       -0.0583
      9  C6         2.1140    1.8950   -1.0500 C.ar    1  UNL1       -0.0626
     10  C7         2.8170    1.5220    0.0630 C.ar    1  UNL1       -0.0761
     11  C8         2.3680    0.4690    0.8270 C.ar    1  UNL1       -0.1289
     12  N3         3.1480    0.0850    1.9750 N.pl3   1  UNL1       -0.5341
     13  S1         4.3970   -1.0890    1.6690 S.O2    1  UNL1       -0.0260
     14  O2         3.8450   -2.3210    1.0220 O.2     1  UNL1       -0.1813
     15  O3         5.1580   -1.3860    2.9220 O.2     1  UNL1       -0.1813
     16  C9         5.5120   -0.3500    0.4990 C.ar    1  UNL1        0.2249
     17  C10        5.8070   -0.8270   -0.7550 C.ar    1  UNL1        0.0008
     18  C11        6.7070    0.0600   -1.2940 C.ar    1  UNL1       -0.0220
     19  C12        6.9210    1.0350   -0.3490 C.ar    1  UNL1        0.0942
     20  O4         6.1960    0.7460    0.6820 O.2     1  UNL1       -0.4472
     21  C13        1.2190   -0.2040    0.4720 C.ar    1  UNL1       -0.0726
     22  C14       -3.1410   -0.2140   -0.4560 C.ar    1  UNL1       -0.0158
     23  C15       -3.4350   -1.6210   -0.6570 C.3     1  UNL1       -0.0255
     24  C16       -4.3260   -2.1050    0.4420 C.3     1  UNL1       -0.0487
     25  C17       -5.6190   -1.3710    0.4180 C.3     1  UNL1       -0.0486
     26  C18       -5.5510    0.0970    0.1980 C.3     1  UNL1       -0.0222
     27  C19       -4.1730    0.5990   -0.0440 C.ar    1  UNL1        0.0232
     28 H          -2.4723    3.3671    0.0486 H       1  UNL1        0.1921
     29 H          -0.7228   -0.5779   -2.1860 H       1  UNL1        0.0377
     30 H          -0.7889   -1.5023   -0.7144 H       1  UNL1        0.0377
     31 H           0.4471    1.5261   -2.2613 H       1  UNL1        0.0620
     32 H           2.4512    2.6852   -1.6217 H       1  UNL1        0.0617
     33 H           3.6775    2.0265    0.3276 H       1  UNL1        0.0606
     34 H           5.4297   -1.6777   -1.2010 H       1  UNL1        0.0669
     35 H           7.1396    0.0049   -2.2293 H       1  UNL1        0.0650
     36 H           7.5468    1.8499   -0.4449 H       1  UNL1        0.1030
     37 H           0.8876   -0.9930    1.0488 H       1  UNL1        0.0608
     38 H          -2.5231   -2.1807   -0.6497 H       1  UNL1        0.0314
     39 H          -3.9259   -1.7522   -1.5986 H       1  UNL1        0.0314
     40 H          -3.8451   -1.9425    1.3839 H       1  UNL1        0.0268
     41 H          -4.5153   -3.1489    0.3028 H       1  UNL1        0.0268
     42 H          -6.1023   -1.5355    1.3583 H       1  UNL1        0.0269
     43 H          -6.1452   -1.7575   -0.4297 H       1  UNL1        0.0269
     44 H          -5.9424    0.5875    1.0647 H       1  UNL1        0.0315
     45 H          -6.1215    0.3093   -0.6820 H       1  UNL1        0.0315
@<TRIPOS>UNITY_ATOM_ATTR
12 1
charge -1
@<TRIPOS>BOND
     1     1     2    2
     2     2     3   ar
     3     2    27   ar
     4     3     4   ar
     5     4     5   ar
     6     5     6    1
     7     5    22   ar
     8     6     7    1
     9     7     8   ar
    10     7    21   ar
    11     8     9   ar
    12     9    10   ar
    13    10    11   ar
    14    11    12    1
    15    11    21   ar
    16    12    13    1
    17    13    14    2
    18    13    15    2
    19    13    16    1
    20    16    17   ar
    21    16    20   ar
    22    17    18   ar
    23    18    19   ar
    24    19    20   ar
    25    22    23    1
    26    22    27   ar
    27    23    24    1
    28    24    25    1
    29    25    26    1
    30    26    27    1
    31     3    28    1
    32     6    29    1
    33     6    30    1
    34     8    31    1
    35     9    32    1
    36    10    33    1
    37    17    34    1
    38    18    35    1
    39    19    36    1
    40    21    37    1
    41    23    38    1
    42    23    39    1
    43    24    40    1
    44    24    41    1
    45    25    42    1
    46    25    43    1
    47    26    44    1
    48    26    45    1
@<TRIPOS>MOLECULE
../data/bude_mols_rdkit_confs_charged/molecule_86.pdb
 45 48 0 0 0
SMALL
GASTEIGER

@<TRIPOS>ATOM
      1  O1        -4.8030    1.3010    3.1200 O.2     1  UNL1       -0.2661
      2  C1        -4.0100    0.5520    2.4950 C.ar    1  UNL1        0.2682
      3  N1        -3.0130   -0.1060    3.1090 N.ar    1  UNL1       -0.2427
      4  N2        -2.1980   -0.8810    2.4360 N.ar    1  UNL1       -0.1753
      5  C2        -2.2720   -1.0960    1.0850 C.ar    1  UNL1        0.0693
      6  C3        -1.2870   -1.9380    0.4050 C.3     1  UNL1        0.0167
      7  C4        -0.1450   -1.2450   -0.1960 C.ar    1  UNL1       -0.0427
      8  C5         0.0410   -1.1160   -1.5400 C.ar    1  UNL1       -0.0583
      9  C6         1.1250   -0.4440   -2.0780 C.ar    1  UNL1       -0.0626
     10  C7         2.0350    0.1060   -1.2030 C.ar    1  UNL1       -0.0761
     11  C8         1.8880    0.0010    0.1680 C.ar    1  UNL1       -0.1289
     12  N3         2.8740    0.5850    1.0500 N.pl3   1  UNL1       -0.5341
     13  S1         4.2130   -0.3560    1.5190 S.O2    1  UNL1       -0.0260
     14  O2         4.0130   -1.7720    1.0220 O.2     1  UNL1       -0.1813
     15  O3         4.3110   -0.4280    3.0370 O.2     1  UNL1       -0.1813
     16  C9         5.7260    0.1880    0.8420 C.ar    1  UNL1        0.2249
     17  C10        6.8560    0.5900    1.5310 C.ar    1  UNL1        0.0008
     18  C11        7.7780    0.9220    0.5670 C.ar    1  UNL1       -0.0220
     19  C12        7.1900    0.7150   -0.6640 C.ar    1  UNL1        0.0942
     20  O4         5.9780    0.2810   -0.4390 O.2     1  UNL1       -0.4472
     21  C13        0.8040   -0.6710    0.6540 C.ar    1  UNL1       -0.0726
     22  C14       -3.2650   -0.4540    0.4220 C.ar    1  UNL1       -0.0158
     23  C15       -3.5510   -0.5850   -1.0120 C.3     1  UNL1       -0.0255
     24  C16       -3.5950    0.8100   -1.5960 C.3     1  UNL1       -0.0487
     25  C17       -4.5640    1.7030   -0.8700 C.3     1  UNL1       -0.0486
     26  C18       -5.1940    1.0520    0.3420 C.3     1  UNL1       -0.0222
     27  C19       -4.1450    0.3830    1.1390 C.ar    1  UNL1        0.0232
     28 H          -2.8924   -0.0045    4.0808 H       1  UNL1        0.1921
     29 H          -1.7937   -2.4679   -0.3744 H       1  UNL1        0.0377
     30 H          -0.8719   -2.5637    1.1673 H       1  UNL1        0.0377
     31 H          -0.6518   -1.5347   -2.1801 H       1  UNL1        0.0620
     32 H           1.2469   -0.3582   -3.0992 H       1  UNL1        0.0617
     33 H           2.8510    0.6116   -1.5817 H       1  UNL1        0.0606
     34 H           6.9808    0.6319    2.5546 H       1  UNL1        0.0669
     35 H           8.7371    1.2644    0.7339 H       1  UNL1        0.0650
     36 H           7.6245    0.8728   -1.5866 H       1  UNL1        0.1030
     37 H           0.6821   -0.7574    1.6751 H       1  UNL1        0.0608
     38 H          -4.4940   -1.0703   -1.1536 H       1  UNL1        0.0314
     39 H          -2.7977   -1.1721   -1.4945 H       1  UNL1        0.0314
     40 H          -3.8905    0.7442   -2.6223 H       1  UNL1        0.0268
     41 H          -2.6190    1.2372   -1.4968 H       1  UNL1        0.0268
     42 H          -5.3432    1.9799   -1.5490 H       1  UNL1        0.0269
     43 H          -4.0104    2.5492   -0.5203 H       1  UNL1        0.0269
     44 H          -5.9166    0.3296    0.0244 H       1  UNL1        0.0315
     45 H          -5.6761    1.7978    0.9389 H       1  UNL1        0.0315
@<TRIPOS>UNITY_ATOM_ATTR
12 1
charge -1
@<TRIPOS>BOND
     1     1     2    2
     2     2     3   ar
     3     2    27   ar
     4     3     4   ar
     5     4     5   ar
     6     5     6    1
     7     5    22   ar
     8     6     7    1
     9     7     8   ar
    10     7    21   ar
    11     8     9   ar
    12     9    10   ar
    13    10    11   ar
    14    11    12    1
    15    11    21   ar
    16    12    13    1
    17    13    14    2
    18    13    15    2
    19    13    16    1
    20    16    17   ar
    21    16    20   ar
    22    17    18   ar
    23    18    19   ar
    24    19    20   ar
    25    22    23    1
    26    22    27   ar
    27    23    24    1
    28    24    25    1
    29    25    26    1
    30    26    27    1
    31     3    28    1
    32     6    29    1
    33     6    30    1
    34     8    31    1
    35     9    32    1
    36    10    33    1
    37    17    34    1
    38    18    35    1
    39    19    36    1
    40    21    37    1
    41    23    38    1
    42    23    39    1
    43    24    40    1
    44    24    41    1
    45    25    42    1
    46    25    43    1
    47    26    44    1
    48    26    45    1
@<TRIPOS>MOLECULE
../data/bude_mols_rdkit_confs_charged/molecule_86.pdb
 45 48 0 0 0
SMALL
GASTEIGER

@<TRIPOS>ATOM
      1  O1        -4.7980   -3.4420    0.2310 O.2     1  UNL1       -0.2661
      2  C1        -3.7990   -2.7240    0.5380 C.ar    1  UNL1        0.2682
      3  N1        -3.0380   -2.9810    1.6140 N.ar    1  UNL1       -0.2427
      4  N2        -2.0110   -2.2280    1.9140 N.ar    1  UNL1       -0.1753
      5  C2        -1.6260   -1.1260    1.1670 C.ar    1  UNL1        0.0693
      6  C3        -0.4660   -0.4810    1.6770 C.3     1  UNL1        0.0167
      7  C4         0.1550    0.7090    1.2330 C.ar    1  UNL1       -0.0427
      8  C5        -0.0510    1.9300    1.8500 C.ar    1  UNL1       -0.0583
      9  C6         0.5680    3.0800    1.4380 C.ar    1  UNL1       -0.0626
     10  C7         1.4200    3.0420    0.3860 C.ar    1  UNL1       -0.0761
     11  C8         1.6690    1.8490   -0.2750 C.ar    1  UNL1       -0.1289
     12  N3         2.5750    1.8220   -1.3450 N.pl3   1  UNL1       -0.5341
     13  S1         4.2330    1.6370   -1.3930 S.O2    1  UNL1       -0.0260
     14  O2         4.9240    2.8220   -0.7350 O.2     1  UNL1       -0.1813
     15  O3         4.6590    1.7500   -2.8660 O.2     1  UNL1       -0.1813
     16  C9         4.9050    0.1700   -0.7880 C.ar    1  UNL1        0.2249
     17  C10        4.2790   -0.9180   -0.2450 C.ar    1  UNL1        0.0008
     18  C11        5.2730   -1.8220    0.0810 C.ar    1  UNL1       -0.0220
     19  C12        6.4600   -1.2250   -0.2880 C.ar    1  UNL1        0.0942
     20  O4         6.2110   -0.0640   -0.7910 O.2     1  UNL1       -0.4472
     21  C13        1.0310    0.7350    0.1700 C.ar    1  UNL1       -0.0726
     22  C14       -2.4040   -0.8640    0.0710 C.ar    1  UNL1       -0.0158
     23  C15       -2.0030    0.3170   -0.7310 C.3     1  UNL1       -0.0255
     24  C16       -3.0810    0.8210   -1.6810 C.3     1  UNL1       -0.0487
     25  C17       -4.4340    0.2060   -1.4300 C.3     1  UNL1       -0.0486
     26  C18       -4.2760   -1.3160   -1.4720 C.3     1  UNL1       -0.0222
     27  C19       -3.4960   -1.6510   -0.2640 C.ar    1  UNL1        0.0232
     28 H          -3.2569   -3.7504    2.1879 H       1  UNL1        0.1921
     29 H           0.3021   -1.2230    1.6116 H       1  UNL1        0.0377
     30 H          -0.8882   -0.1032    2.5847 H       1  UNL1        0.0377
     31 H          -0.6973    1.9761    2.6532 H       1  UNL1        0.0620
     32 H           0.3862    3.9707    1.9265 H       1  UNL1        0.0617
     33 H           1.8874    3.9076    0.0740 H       1  UNL1        0.0606
     34 H           3.2638   -1.0402   -0.1059 H       1  UNL1        0.0669
     35 H           5.1516   -2.7519    0.5117 H       1  UNL1        0.0650
     36 H           7.3981   -1.6410   -0.1790 H       1  UNL1        0.1030
     37 H           1.2153   -0.1531   -0.3223 H       1  UNL1        0.0608
     38 H          -1.1424    0.0533   -1.3095 H       1  UNL1        0.0314
     39 H          -1.8095    1.1085   -0.0375 H       1  UNL1        0.0314
     40 H          -2.7845    0.5914   -2.6831 H       1  UNL1        0.0268
     41 H          -3.1775    1.8743   -1.5196 H       1  UNL1        0.0268
     42 H          -5.1221    0.5208   -2.1865 H       1  UNL1        0.0269
     43 H          -4.8121    0.5147   -0.4778 H       1  UNL1        0.0269
     44 H          -3.7503   -1.6156   -2.3545 H       1  UNL1        0.0315
     45 H          -5.2205   -1.8184   -1.4935 H       1  UNL1        0.0315
@<TRIPOS>UNITY_ATOM_ATTR
12 1
charge -1
@<TRIPOS>BOND
     1     1     2    2
     2     2     3   ar
     3     2    27   ar
     4     3     4   ar
     5     4     5   ar
     6     5     6    1
     7     5    22   ar
     8     6     7    1
     9     7     8   ar
    10     7    21   ar
    11     8     9   ar
    12     9    10   ar
    13    10    11   ar
    14    11    12    1
    15    11    21   ar
    16    12    13    1
    17    13    14    2
    18    13    15    2
    19    13    16    1
    20    16    17   ar
    21    16    20   ar
    22    17    18   ar
    23    18    19   ar
    24    19    20   ar
    25    22    23    1
    26    22    27   ar
    27    23    24    1
    28    24    25    1
    29    25    26    1
    30    26    27    1
    31     3    28    1
    32     6    29    1
    33     6    30    1
    34     8    31    1
    35     9    32    1
    36    10    33    1
    37    17    34    1
    38    18    35    1
    39    19    36    1
    40    21    37    1
    41    23    38    1
    42    23    39    1
    43    24    40    1
    44    24    41    1
    45    25    42    1
    46    25    43    1
    47    26    44    1
    48    26    45    1
@<TRIPOS>MOLECULE
../data/bude_mols_rdkit_confs_charged/molecule_86.pdb
 45 48 0 0 0
SMALL
GASTEIGER

@<TRIPOS>ATOM
      1  O1        -5.5340   -1.5910   -1.3660 O.2     1  UNL1       -0.2661
      2  C1        -4.3690   -1.1540   -1.2100 C.ar    1  UNL1        0.2682
      3  N1        -3.4370   -1.5510   -2.1100 N.ar    1  UNL1       -0.2427
      4  N2        -2.2180   -1.1050   -1.9570 N.ar    1  UNL1       -0.1753
      5  C2        -1.8200   -0.2720   -0.9620 C.ar    1  UNL1        0.0693
      6  C3        -0.3910    0.0580   -0.9220 C.3     1  UNL1        0.0167
      7  C4         0.4640   -0.8570   -0.1540 C.ar    1  UNL1       -0.0427
      8  C5         0.0790   -1.4560    0.9920 C.ar    1  UNL1       -0.0583
      9  C6         0.9320   -2.3080    1.7200 C.ar    1  UNL1       -0.0626
     10  C7         2.1940   -2.5190    1.2250 C.ar    1  UNL1       -0.0761
     11  C8         2.6510   -1.9260    0.0400 C.ar    1  UNL1       -0.1289
     12  N3         3.9720   -2.2060   -0.4010 N.pl3   1  UNL1       -0.5341
     13  S1         5.3520   -1.2820    0.0430 S.O2    1  UNL1       -0.0260
     14  O2         5.3650   -1.2840    1.5680 O.2     1  UNL1       -0.1813
     15  O3         6.6260   -1.9470   -0.3900 O.2     1  UNL1       -0.1813
     16  C9         5.2860    0.3720   -0.4750 C.ar    1  UNL1        0.2249
     17  C10        5.3180    1.5070    0.3430 C.ar    1  UNL1        0.0008
     18  C11        5.2450    2.6300   -0.4550 C.ar    1  UNL1       -0.0220
     19  C12        5.1710    2.1380   -1.7400 C.ar    1  UNL1        0.0942
     20  O4         5.1980    0.8340   -1.6990 O.2     1  UNL1       -0.4472
     21  C13        1.7650   -1.1070   -0.6170 C.ar    1  UNL1       -0.0726
     22  C14       -2.7560    0.1340   -0.0520 C.ar    1  UNL1       -0.0158
     23  C15       -2.4080    1.0760    1.0110 C.3     1  UNL1       -0.0255
     24  C16       -3.5120    1.9960    1.4470 C.3     1  UNL1       -0.0487
     25  C17       -4.8330    1.6940    0.8160 C.3     1  UNL1       -0.0486
     26  C18       -5.0280    0.1710    0.8250 C.3     1  UNL1       -0.0222
     27  C19       -4.0830   -0.3270   -0.1820 C.ar    1  UNL1        0.0232
     28 H          -3.6698   -2.1539   -2.8527 H       1  UNL1        0.1921
     29 H          -0.2930    1.0336   -0.4935 H       1  UNL1        0.0377
     30 H          -0.0517   -0.0143   -1.9342 H       1  UNL1        0.0377
     31 H          -0.8743   -1.2838    1.3477 H       1  UNL1        0.0620
     32 H           0.6189   -2.7576    2.5946 H       1  UNL1        0.0617
     33 H           2.8328   -3.1396    1.7463 H       1  UNL1        0.0606
     34 H           5.3851    1.5044    1.3728 H       1  UNL1        0.0669
     35 H           5.2457    3.6178   -0.1563 H       1  UNL1        0.0650
     36 H           5.1049    2.7090   -2.5971 H       1  UNL1        0.1030
     37 H           2.0707   -0.6542   -1.4925 H       1  UNL1        0.0608
     38 H          -1.5946    1.6785    0.6642 H       1  UNL1        0.0314
     39 H          -2.1687    0.4787    1.8659 H       1  UNL1        0.0314
     40 H          -3.2371    2.9979    1.1912 H       1  UNL1        0.0268
     41 H          -3.6321    1.8611    2.5016 H       1  UNL1        0.0268
     42 H          -4.8451    2.0554   -0.1911 H       1  UNL1        0.0269
     43 H          -5.6214    2.1722    1.3588 H       1  UNL1        0.0269
     44 H          -6.0328   -0.0831    0.5590 H       1  UNL1        0.0315
     45 H          -4.8551   -0.2554    1.7910 H       1  UNL1        0.0315
@<TRIPOS>UNITY_ATOM_ATTR
12 1
charge -1
@<TRIPOS>BOND
     1     1     2    2
     2     2     3   ar
     3     2    27   ar
     4     3     4   ar
     5     4     5   ar
     6     5     6    1
     7     5    22   ar
     8     6     7    1
     9     7     8   ar
    10     7    21   ar
    11     8     9   ar
    12     9    10   ar
    13    10    11   ar
    14    11    12    1
    15    11    21   ar
    16    12    13    1
    17    13    14    2
    18    13    15    2
    19    13    16    1
    20    16    17   ar
    21    16    20   ar
    22    17    18   ar
    23    18    19   ar
    24    19    20   ar
    25    22    23    1
    26    22    27   ar
    27    23    24    1
    28    24    25    1
    29    25    26    1
    30    26    27    1
    31     3    28    1
    32     6    29    1
    33     6    30    1
    34     8    31    1
    35     9    32    1
    36    10    33    1
    37    17    34    1
    38    18    35    1
    39    19    36    1
    40    21    37    1
    41    23    38    1
    42    23    39    1
    43    24    40    1
    44    24    41    1
    45    25    42    1
    46    25    43    1
    47    26    44    1
    48    26    45    1
@<TRIPOS>MOLECULE
../data/bude_mols_rdkit_confs_charged/molecule_86.pdb
 45 48 0 0 0
SMALL
GASTEIGER

@<TRIPOS>ATOM
      1  O1        -2.9760    1.2890   -3.3980 O.2     1  UNL1       -0.2661
      2  C1        -2.5420    0.9100   -2.2720 C.ar    1  UNL1        0.2682
      3  N1        -1.2240    0.9450   -1.9860 N.ar    1  UNL1       -0.2427
      4  N2        -0.7590    0.5510   -0.8110 N.ar    1  UNL1       -0.1753
      5  C2        -1.5950    0.0970    0.1480 C.ar    1  UNL1        0.0693
      6  C3        -1.1190   -0.3560    1.4830 C.3     1  UNL1        0.0167
      7  C4         0.3430   -0.2500    1.6190 C.ar    1  UNL1       -0.0427
      8  C5         0.9170    0.9030    2.1010 C.ar    1  UNL1       -0.0583
      9  C6         2.3120    0.9940    2.2270 C.ar    1  UNL1       -0.0626
     10  C7         3.1200   -0.0600    1.8730 C.ar    1  UNL1       -0.0761
     11  C8         2.5420   -1.2060    1.3940 C.ar    1  UNL1       -0.1289
     12  N3         3.4030   -2.2910    1.0320 N.pl3   1  UNL1       -0.5341
     13  S1         3.9970   -2.3730   -0.6030 S.O2    1  UNL1       -0.0260
     14  O2         2.7990   -2.3590   -1.5180 O.2     1  UNL1       -0.1813
     15  O3         4.8000   -3.5970   -0.8280 O.2     1  UNL1       -0.1813
     16  C9         4.9570   -0.9500   -0.9390 C.ar    1  UNL1        0.2249
     17  C10        6.2760   -0.8520   -1.3040 C.ar    1  UNL1        0.0008
     18  C11        6.5510    0.4880   -1.4490 C.ar    1  UNL1       -0.0220
     19  C12        5.3930    1.1640   -1.1690 C.ar    1  UNL1        0.0942
     20  O4         4.4900    0.2690   -0.8760 O.2     1  UNL1       -0.4472
     21  C13        1.1750   -1.2850    1.2750 C.ar    1  UNL1       -0.0726
     22  C14       -2.9490    0.0440   -0.0990 C.ar    1  UNL1       -0.0158
     23  C15       -3.9590   -0.4350    0.8790 C.3     1  UNL1       -0.0255
     24  C16       -5.0380    0.6120    0.9530 C.3     1  UNL1       -0.0487
     25  C17       -5.5960    1.0300   -0.3610 C.3     1  UNL1       -0.0486
     26  C18       -4.9000    0.3800   -1.5460 C.3     1  UNL1       -0.0222
     27  C19       -3.4390    0.4560   -1.3280 C.ar    1  UNL1        0.0232
     28 H          -0.5930    1.2714   -2.6675 H       1  UNL1        0.1921
     29 H          -1.4045   -1.3778    1.6219 H       1  UNL1        0.0377
     30 H          -1.5638    0.2773    2.2219 H       1  UNL1        0.0377
     31 H           0.3217    1.7019    2.3702 H       1  UNL1        0.0620
     32 H           2.7358    1.8623    2.5896 H       1  UNL1        0.0617
     33 H           4.1453    0.0107    1.9665 H       1  UNL1        0.0606
     34 H           6.9353   -1.6337   -1.4431 H       1  UNL1        0.0669
     35 H           7.4564    0.9043   -1.7173 H       1  UNL1        0.0650
     36 H           5.2600    2.1872   -1.1865 H       1  UNL1        0.1030
     37 H           0.7583   -2.1569    0.9128 H       1  UNL1        0.0608
     38 H          -3.5065   -0.5638    1.8400 H       1  UNL1        0.0314
     39 H          -4.3644   -1.3776    0.5757 H       1  UNL1        0.0314
     40 H          -4.6291    1.4776    1.4310 H       1  UNL1        0.0268
     41 H          -5.8475    0.1709    1.4963 H       1  UNL1        0.0268
     42 H          -5.4965    2.0917   -0.4496 H       1  UNL1        0.0269
     43 H          -6.6188    0.7167   -0.3843 H       1  UNL1        0.0269
     44 H          -5.1586    0.8981   -2.4458 H       1  UNL1        0.0315
     45 H          -5.2056   -0.6414   -1.6371 H       1  UNL1        0.0315
@<TRIPOS>UNITY_ATOM_ATTR
12 1
charge -1
@<TRIPOS>BOND
     1     1     2    2
     2     2     3   ar
     3     2    27   ar
     4     3     4   ar
     5     4     5   ar
     6     5     6    1
     7     5    22   ar
     8     6     7    1
     9     7     8   ar
    10     7    21   ar
    11     8     9   ar
    12     9    10   ar
    13    10    11   ar
    14    11    12    1
    15    11    21   ar
    16    12    13    1
    17    13    14    2
    18    13    15    2
    19    13    16    1
    20    16    17   ar
    21    16    20   ar
    22    17    18   ar
    23    18    19   ar
    24    19    20   ar
    25    22    23    1
    26    22    27   ar
    27    23    24    1
    28    24    25    1
    29    25    26    1
    30    26    27    1
    31     3    28    1
    32     6    29    1
    33     6    30    1
    34     8    31    1
    35     9    32    1
    36    10    33    1
    37    17    34    1
    38    18    35    1
    39    19    36    1
    40    21    37    1
    41    23    38    1
    42    23    39    1
    43    24    40    1
    44    24    41    1
    45    25    42    1
    46    25    43    1
    47    26    44    1
    48    26    45    1
@<TRIPOS>MOLECULE
../data/bude_mols_rdkit_confs_charged/molecule_86.pdb
 45 48 0 0 0
SMALL
GASTEIGER

@<TRIPOS>ATOM
      1  O1        -5.2090    2.5970   -0.4170 O.2     1  UNL1       -0.2661
      2  C1        -4.2500    1.8020   -0.6390 C.ar    1  UNL1        0.2682
      3  N1        -3.4280    2.0050   -1.7070 N.ar    1  UNL1       -0.2427
      4  N2        -2.4550    1.1600   -1.8930 N.ar    1  UNL1       -0.1753
      5  C2        -2.1930    0.0790   -1.0950 C.ar    1  UNL1        0.0693
      6  C3        -1.0450   -0.7410   -1.4780 C.3     1  UNL1        0.0167
      7  C4         0.1830   -0.5160   -0.6750 C.ar    1  UNL1       -0.0427
      8  C5         0.5840   -1.2680    0.3810 C.ar    1  UNL1       -0.0583
      9  C6         1.7450   -0.9580    1.0540 C.ar    1  UNL1       -0.0626
     10  C7         2.5330    0.1230    0.6760 C.ar    1  UNL1       -0.0761
     11  C8         2.1490    0.9080   -0.3970 C.ar    1  UNL1       -0.1289
     12  N3         2.9420    2.0340   -0.8170 N.pl3   1  UNL1       -0.5341
     13  S1         4.1980    1.8230   -1.9980 S.O2    1  UNL1       -0.0260
     14  O2         4.8370    3.1420   -2.3140 O.2     1  UNL1       -0.1813
     15  O3         3.6230    1.3000   -3.2960 O.2     1  UNL1       -0.1813
     16  C9         5.3530    0.7070   -1.3100 C.ar    1  UNL1        0.2249
     17  C10        6.6850    0.9630   -1.0720 C.ar    1  UNL1        0.0008
     18  C11        7.2350   -0.1750   -0.5260 C.ar    1  UNL1       -0.0220
     19  C12        6.1940   -1.0950   -0.4520 C.ar    1  UNL1        0.0942
     20  O4         5.1140   -0.5120   -0.9300 O.2     1  UNL1       -0.4472
     21  C13        0.9830    0.5680   -1.0460 C.ar    1  UNL1       -0.0726
     22  C14       -2.9950   -0.1620   -0.0080 C.ar    1  UNL1       -0.0158
     23  C15       -2.7630   -1.3050    0.8840 C.3     1  UNL1       -0.0255
     24  C16       -3.9680   -1.7710    1.6170 C.3     1  UNL1       -0.0487
     25  C17       -5.2370   -1.0380    1.2520 C.3     1  UNL1       -0.0486
     26  C18       -4.9210    0.4600    1.3810 C.3     1  UNL1       -0.0222
     27  C19       -4.0440    0.7400    0.2010 C.ar    1  UNL1        0.0232
     28 H          -3.5653    2.7651   -2.3174 H       1  UNL1        0.1921
     29 H          -0.8149   -0.5322   -2.5019 H       1  UNL1        0.0377
     30 H          -1.3327   -1.7571   -1.3057 H       1  UNL1        0.0377
     31 H           0.0164   -2.0759    0.6812 H       1  UNL1        0.0620
     32 H           2.0358   -1.5400    1.8551 H       1  UNL1        0.0617
     33 H           3.3998    0.3390    1.1928 H       1  UNL1        0.0606
     34 H           7.1807    1.8468   -1.2673 H       1  UNL1        0.0669
     35 H           8.2144   -0.3160   -0.2330 H       1  UNL1        0.0650
     36 H           6.2566   -2.0589   -0.0887 H       1  UNL1        0.1030
     37 H           0.6843    1.1440   -1.8485 H       1  UNL1        0.0608
     38 H          -2.0231   -1.0223    1.6034 H       1  UNL1        0.0314
     39 H          -2.4532   -2.1181    0.2612 H       1  UNL1        0.0314
     40 H          -3.7947   -1.6405    2.6648 H       1  UNL1        0.0268
     41 H          -4.1158   -2.7954    1.3455 H       1  UNL1        0.0268
     42 H          -6.0270   -1.3091    1.9208 H       1  UNL1        0.0269
     43 H          -5.5575   -1.2843    0.2613 H       1  UNL1        0.0269
     44 H          -4.4058    0.6639    2.2964 H       1  UNL1        0.0315
     45 H          -5.8003    1.0695    1.3983 H       1  UNL1        0.0315
@<TRIPOS>UNITY_ATOM_ATTR
12 1
charge -1
@<TRIPOS>BOND
     1     1     2    2
     2     2     3   ar
     3     2    27   ar
     4     3     4   ar
     5     4     5   ar
     6     5     6    1
     7     5    22   ar
     8     6     7    1
     9     7     8   ar
    10     7    21   ar
    11     8     9   ar
    12     9    10   ar
    13    10    11   ar
    14    11    12    1
    15    11    21   ar
    16    12    13    1
    17    13    14    2
    18    13    15    2
    19    13    16    1
    20    16    17   ar
    21    16    20   ar
    22    17    18   ar
    23    18    19   ar
    24    19    20   ar
    25    22    23    1
    26    22    27   ar
    27    23    24    1
    28    24    25    1
    29    25    26    1
    30    26    27    1
    31     3    28    1
    32     6    29    1
    33     6    30    1
    34     8    31    1
    35     9    32    1
    36    10    33    1
    37    17    34    1
    38    18    35    1
    39    19    36    1
    40    21    37    1
    41    23    38    1
    42    23    39    1
    43    24    40    1
    44    24    41    1
    45    25    42    1
    46    25    43    1
    47    26    44    1
    48    26    45    1
@<TRIPOS>MOLECULE
../data/bude_mols_rdkit_confs_charged/molecule_86.pdb
 45 48 0 0 0
SMALL
GASTEIGER

@<TRIPOS>ATOM
      1  O1        -4.5030   -2.2650   -2.4340 O.2     1  UNL1       -0.2661
      2  C1        -3.7070   -1.9320   -1.5440 C.ar    1  UNL1        0.2682
      3  N1        -2.7520   -2.7660   -1.1020 N.ar    1  UNL1       -0.2427
      4  N2        -1.9280   -2.3740   -0.1570 N.ar    1  UNL1       -0.1753
      5  C2        -2.0020   -1.1210    0.4120 C.ar    1  UNL1        0.0693
      6  C3        -1.0080   -0.7270    1.4340 C.3     1  UNL1        0.0167
      7  C4         0.1030    0.0140    0.7720 C.ar    1  UNL1       -0.0427
      8  C5         0.2020    1.3720    0.7490 C.ar    1  UNL1       -0.0583
      9  C6         1.2470    2.0200    0.1210 C.ar    1  UNL1       -0.0626
     10  C7         2.2270    1.2610   -0.5050 C.ar    1  UNL1       -0.0761
     11  C8         2.1920   -0.0950   -0.5180 C.ar    1  UNL1       -0.1289
     12  N3         3.1520   -0.8620   -1.1830 N.pl3   1  UNL1       -0.5341
     13  S1         4.5460   -1.6090   -0.6520 S.O2    1  UNL1       -0.0260
     14  O2         4.1830   -2.6270    0.4530 O.2     1  UNL1       -0.1813
     15  O3         5.1600   -2.4910   -1.7440 O.2     1  UNL1       -0.1813
     16  C9         5.7740   -0.5730   -0.0020 C.ar    1  UNL1        0.2249
     17  C10        5.7790    0.7690    0.1250 C.ar    1  UNL1        0.0008
     18  C11        7.0010    1.1260    0.7090 C.ar    1  UNL1       -0.0220
     19  C12        7.6780   -0.0480    0.9050 C.ar    1  UNL1        0.0942
     20  O4         6.9410   -1.0050    0.4850 O.2     1  UNL1       -0.4472
     21  C13        1.1180   -0.7010    0.1270 C.ar    1  UNL1       -0.0726
     22  C14       -2.9550   -0.2510   -0.0070 C.ar    1  UNL1       -0.0158
     23  C15       -3.1410    1.0920    0.5760 C.3     1  UNL1       -0.0255
     24  C16       -4.6520    1.1840    0.8810 C.3     1  UNL1       -0.0487
     25  C17       -5.5110    0.9670   -0.3030 C.3     1  UNL1       -0.0486
     26  C18       -4.8460    0.3050   -1.4580 C.3     1  UNL1       -0.0222
     27  C19       -3.8360   -0.6570   -1.0130 C.ar    1  UNL1        0.0232
     28 H          -2.6695   -3.6691   -1.4852 H       1  UNL1        0.1921
     29 H          -0.6202   -1.6017    1.9129 H       1  UNL1        0.0377
     30 H          -1.4727   -0.1013    2.1671 H       1  UNL1        0.0377
     31 H          -0.5268    1.9343    1.2155 H       1  UNL1        0.0620
     32 H           1.2989    3.0507    0.1169 H       1  UNL1        0.0617
     33 H           3.0077    1.7445   -0.9759 H       1  UNL1        0.0606
     34 H           5.0233    1.4133   -0.1557 H       1  UNL1        0.0669
     35 H           7.3244    2.0776    0.9433 H       1  UNL1        0.0650
     36 H           8.6184   -0.1438    1.3192 H       1  UNL1        0.1030
     37 H           1.0676   -1.7318    0.1297 H       1  UNL1        0.0608
     38 H          -2.8506    1.8493   -0.1218 H       1  UNL1        0.0314
     39 H          -2.5428    1.2388    1.4509 H       1  UNL1        0.0314
     40 H          -4.8587    2.1573    1.2746 H       1  UNL1        0.0268
     41 H          -4.8784    0.4052    1.5790 H       1  UNL1        0.0268
     42 H          -5.8701    1.9204   -0.6302 H       1  UNL1        0.0269
     43 H          -6.2875    0.3019    0.0125 H       1  UNL1        0.0269
     44 H          -4.3738    1.0511   -2.0624 H       1  UNL1        0.0315
     45 H          -5.5898   -0.2223   -2.0181 H       1  UNL1        0.0315
@<TRIPOS>UNITY_ATOM_ATTR
12 1
charge -1
@<TRIPOS>BOND
     1     1     2    2
     2     2     3   ar
     3     2    27   ar
     4     3     4   ar
     5     4     5   ar
     6     5     6    1
     7     5    22   ar
     8     6     7    1
     9     7     8   ar
    10     7    21   ar
    11     8     9   ar
    12     9    10   ar
    13    10    11   ar
    14    11    12    1
    15    11    21   ar
    16    12    13    1
    17    13    14    2
    18    13    15    2
    19    13    16    1
    20    16    17   ar
    21    16    20   ar
    22    17    18   ar
    23    18    19   ar
    24    19    20   ar
    25    22    23    1
    26    22    27   ar
    27    23    24    1
    28    24    25    1
    29    25    26    1
    30    26    27    1
    31     3    28    1
    32     6    29    1
    33     6    30    1
    34     8    31    1
    35     9    32    1
    36    10    33    1
    37    17    34    1
    38    18    35    1
    39    19    36    1
    40    21    37    1
    41    23    38    1
    42    23    39    1
    43    24    40    1
    44    24    41    1
    45    25    42    1
    46    25    43    1
    47    26    44    1
    48    26    45    1
@<TRIPOS>MOLECULE
../data/bude_mols_rdkit_confs_charged/molecule_86.pdb
 45 48 0 0 0
SMALL
GASTEIGER

@<TRIPOS>ATOM
      1  O1        -4.2210    0.8840    2.2880 O.2     1  UNL1       -0.2661
      2  C1        -3.4320    0.4480    1.4230 C.ar    1  UNL1        0.2682
      3  N1        -2.3950   -0.3840    1.7390 N.ar    1  UNL1       -0.2427
      4  N2        -1.5580   -0.8470    0.8280 N.ar    1  UNL1       -0.1753
      5  C2        -1.7520   -0.4750   -0.4490 C.ar    1  UNL1        0.0693
      6  C3        -0.8570   -0.9470   -1.5530 C.3     1  UNL1        0.0167
      7  C4         0.2170   -1.8470   -1.0170 C.ar    1  UNL1       -0.0427
      8  C5        -0.0740   -3.1870   -0.9660 C.ar    1  UNL1       -0.0583
      9  C6         0.9010   -4.0280   -0.4770 C.ar    1  UNL1       -0.0626
     10  C7         2.1040   -3.5230   -0.0630 C.ar    1  UNL1       -0.0761
     11  C8         2.4070   -2.1430   -0.1140 C.ar    1  UNL1       -0.1289
     12  N3         3.5860   -1.7370    0.3030 N.pl3   1  UNL1       -0.5341
     13  S1         5.0020   -1.2470    0.8120 S.O2    1  UNL1       -0.0260
     14  O2         6.1280   -1.2960   -0.2400 O.2     1  UNL1       -0.1813
     15  O3         5.5090   -2.0860    1.9930 O.2     1  UNL1       -0.1813
     16  C9         4.9710    0.4110    1.4440 C.ar    1  UNL1        0.2249
     17  C10        5.2860    0.8530    2.7000 C.ar    1  UNL1        0.0008
     18  C11        5.1090    2.2170    2.7110 C.ar    1  UNL1       -0.0220
     19  C12        4.6830    2.5440    1.4240 C.ar    1  UNL1        0.0942
     20  O4         4.6220    1.4400    0.7310 O.2     1  UNL1       -0.4472
     21  C13        1.3880   -1.3050   -0.6210 C.ar    1  UNL1       -0.0726
     22  C14       -2.7810    0.3640   -0.8380 C.ar    1  UNL1       -0.0158
     23  C15       -2.9900    0.7730   -2.2540 C.3     1  UNL1       -0.0255
     24  C16       -3.3720    2.2140   -2.3870 C.3     1  UNL1       -0.0487
     25  C17       -4.1170    2.7800   -1.2270 C.3     1  UNL1       -0.0486
     26  C18       -4.7400    1.7380   -0.3240 C.3     1  UNL1       -0.0222
     27  C19       -3.6450    0.8400    0.1190 C.ar    1  UNL1        0.0232
     28 H          -2.2672   -0.6477    2.6789 H       1  UNL1        0.1921
     29 H          -0.4030   -0.1000   -2.0235 H       1  UNL1        0.0377
     30 H          -1.4434   -1.4949   -2.2607 H       1  UNL1        0.0377
     31 H          -0.9870   -3.5502   -1.2815 H       1  UNL1        0.0620
     32 H           0.7238   -5.0432   -0.4225 H       1  UNL1        0.0617
     33 H           2.8171   -4.1745    0.3003 H       1  UNL1        0.0606
     34 H           5.5986    0.2706    3.4926 H       1  UNL1        0.0669
     35 H           5.2594    2.8612    3.5030 H       1  UNL1        0.0650
     36 H           4.4564    3.4905    1.0808 H       1  UNL1        0.1030
     37 H           1.5382   -0.2862   -0.6879 H       1  UNL1        0.0608
     38 H          -3.7698    0.1718   -2.6727 H       1  UNL1        0.0314
     39 H          -2.0636    0.6345   -2.7712 H       1  UNL1        0.0314
     40 H          -3.9867    2.3151   -3.2570 H       1  UNL1        0.0268
     41 H          -2.4545    2.7612   -2.4477 H       1  UNL1        0.0268
     42 H          -4.8972    3.4082   -1.6031 H       1  UNL1        0.0269
     43 H          -3.4045    3.3150   -0.6345 H       1  UNL1        0.0269
     44 H          -5.4786    1.1802   -0.8609 H       1  UNL1        0.0315
     45 H          -5.2214    2.1967    0.5143 H       1  UNL1        0.0315
@<TRIPOS>UNITY_ATOM_ATTR
12 1
charge -1
@<TRIPOS>BOND
     1     1     2    2
     2     2     3   ar
     3     2    27   ar
     4     3     4   ar
     5     4     5   ar
     6     5     6    1
     7     5    22   ar
     8     6     7    1
     9     7     8   ar
    10     7    21   ar
    11     8     9   ar
    12     9    10   ar
    13    10    11   ar
    14    11    12    1
    15    11    21   ar
    16    12    13    1
    17    13    14    2
    18    13    15    2
    19    13    16    1
    20    16    17   ar
    21    16    20   ar
    22    17    18   ar
    23    18    19   ar
    24    19    20   ar
    25    22    23    1
    26    22    27   ar
    27    23    24    1
    28    24    25    1
    29    25    26    1
    30    26    27    1
    31     3    28    1
    32     6    29    1
    33     6    30    1
    34     8    31    1
    35     9    32    1
    36    10    33    1
    37    17    34    1
    38    18    35    1
    39    19    36    1
    40    21    37    1
    41    23    38    1
    42    23    39    1
    43    24    40    1
    44    24    41    1
    45    25    42    1
    46    25    43    1
    47    26    44    1
    48    26    45    1
@<TRIPOS>MOLECULE
../data/bude_mols_rdkit_confs_charged/molecule_86.pdb
 45 48 0 0 0
SMALL
GASTEIGER

@<TRIPOS>ATOM
      1  O1        -3.7370   -2.1950    2.9570 O.2     1  UNL1       -0.2661
      2  C1        -2.8870   -2.0410    2.0450 C.ar    1  UNL1        0.2682
      3  N1        -1.5560   -2.2800    2.2710 N.ar    1  UNL1       -0.2427
      4  N2        -0.6940   -2.1060    1.2880 N.ar    1  UNL1       -0.1753
      5  C2        -1.0900   -1.6900    0.0320 C.ar    1  UNL1        0.0693
      6  C3        -0.0620   -1.4410   -1.0070 C.3     1  UNL1        0.0167
      7  C4         0.3550   -0.0380   -0.9860 C.ar    1  UNL1       -0.0427
      8  C5        -0.0310    0.8780   -1.9040 C.ar    1  UNL1       -0.0583
      9  C6         0.4270    2.2010   -1.7810 C.ar    1  UNL1       -0.0626
     10  C7         1.2520    2.5930   -0.7600 C.ar    1  UNL1       -0.0761
     11  C8         1.6470    1.6570    0.1770 C.ar    1  UNL1       -0.1289
     12  N3         2.5110    1.9850    1.2600 N.pl3   1  UNL1       -0.5341
     13  S1         4.2270    1.8790    1.1290 S.O2    1  UNL1       -0.0260
     14  O2         4.8340    2.4250    2.3850 O.2     1  UNL1       -0.1813
     15  O3         4.6280    2.8150    0.0010 O.2     1  UNL1       -0.1813
     16  C9         4.7770    0.2630    0.7970 C.ar    1  UNL1        0.2249
     17  C10        5.6230   -0.5040    1.5750 C.ar    1  UNL1        0.0008
     18  C11        5.7970   -1.7260    0.9340 C.ar    1  UNL1       -0.0220
     19  C12        5.0290   -1.6300   -0.2220 C.ar    1  UNL1        0.0942
     20  O4         4.4690   -0.4520   -0.2340 O.2     1  UNL1       -0.4472
     21  C13        1.1900    0.3640    0.0430 C.ar    1  UNL1       -0.0726
     22  C14       -2.3950   -1.4520   -0.2090 C.ar    1  UNL1       -0.0158
     23  C15       -2.9320   -1.0610   -1.5180 C.3     1  UNL1       -0.0255
     24  C16       -3.7090    0.2290   -1.2720 C.3     1  UNL1       -0.0487
     25  C17       -4.7430    0.0500   -0.1910 C.3     1  UNL1       -0.0486
     26  C18       -4.7280   -1.3260    0.4490 C.3     1  UNL1       -0.0222
     27  C19       -3.3320   -1.6290    0.8240 C.ar    1  UNL1        0.0232
     28 H          -1.2472   -2.5781    3.1570 H       1  UNL1        0.1921
     29 H          -0.4692   -1.6735   -1.9688 H       1  UNL1        0.0377
     30 H           0.7887   -2.0590   -0.8089 H       1  UNL1        0.0377
     31 H          -0.6524    0.6092   -2.6828 H       1  UNL1        0.0620
     32 H           0.1326    2.8990   -2.4818 H       1  UNL1        0.0617
     33 H           1.5733    3.5713   -0.6916 H       1  UNL1        0.0606
     34 H           6.0494   -0.2209    2.4711 H       1  UNL1        0.0669
     35 H           6.3688   -2.5262    1.2465 H       1  UNL1        0.0650
     36 H           4.9214   -2.3612   -0.9423 H       1  UNL1        0.1030
     37 H           1.4834   -0.3368    0.7414 H       1  UNL1        0.0608
     38 H          -3.5813   -1.8218   -1.8981 H       1  UNL1        0.0314
     39 H          -2.1549   -0.9243   -2.2407 H       1  UNL1        0.0314
     40 H          -4.1991    0.5184   -2.1781 H       1  UNL1        0.0268
     41 H          -3.0186    0.9831   -0.9562 H       1  UNL1        0.0268
     42 H          -5.7101    0.2125   -0.6190 H       1  UNL1        0.0269
     43 H          -4.5128    0.7550    0.5803 H       1  UNL1        0.0269
     44 H          -5.0855   -2.0560   -0.2469 H       1  UNL1        0.0315
     45 H          -5.3615   -1.3464    1.3111 H       1  UNL1        0.0315
@<TRIPOS>UNITY_ATOM_ATTR
12 1
charge -1
@<TRIPOS>BOND
     1     1     2    2
     2     2     3   ar
     3     2    27   ar
     4     3     4   ar
     5     4     5   ar
     6     5     6    1
     7     5    22   ar
     8     6     7    1
     9     7     8   ar
    10     7    21   ar
    11     8     9   ar
    12     9    10   ar
    13    10    11   ar
    14    11    12    1
    15    11    21   ar
    16    12    13    1
    17    13    14    2
    18    13    15    2
    19    13    16    1
    20    16    17   ar
    21    16    20   ar
    22    17    18   ar
    23    18    19   ar
    24    19    20   ar
    25    22    23    1
    26    22    27   ar
    27    23    24    1
    28    24    25    1
    29    25    26    1
    30    26    27    1
    31     3    28    1
    32     6    29    1
    33     6    30    1
    34     8    31    1
    35     9    32    1
    36    10    33    1
    37    17    34    1
    38    18    35    1
    39    19    36    1
    40    21    37    1
    41    23    38    1
    42    23    39    1
    43    24    40    1
    44    24    41    1
    45    25    42    1
    46    25    43    1
    47    26    44    1
    48    26    45    1
@<TRIPOS>MOLECULE
../data/bude_mols_rdkit_confs_charged/molecule_86.pdb
 45 48 0 0 0
SMALL
GASTEIGER

@<TRIPOS>ATOM
      1  O1        -4.3230    1.0830    3.4680 O.2     1  UNL1       -0.2661
      2  C1        -3.5720    0.4390    2.6660 C.ar    1  UNL1        0.2682
      3  N1        -2.6580   -0.4220    3.1290 N.ar    1  UNL1       -0.2427
      4  N2        -1.9000   -1.0690    2.2830 N.ar    1  UNL1       -0.1753
      5  C2        -1.9580   -0.9420    0.9430 C.ar    1  UNL1        0.0693
      6  C3        -1.0470   -1.7080    0.0830 C.3     1  UNL1        0.0167
      7  C4         0.0840   -0.8610   -0.3660 C.ar    1  UNL1       -0.0427
      8  C5         0.1180    0.5040   -0.1990 C.ar    1  UNL1       -0.0583
      9  C6         1.1830    1.2920   -0.6370 C.ar    1  UNL1       -0.0626
     10  C7         2.2510    0.6990   -1.2610 C.ar    1  UNL1       -0.0761
     11  C8         2.2620   -0.6710   -1.4500 C.ar    1  UNL1       -0.1289
     12  N3         3.3510   -1.3300   -2.0970 N.pl3   1  UNL1       -0.5341
     13  S1         4.6730   -1.9000   -1.1350 S.O2    1  UNL1       -0.0260
     14  O2         5.6660   -2.6440   -1.9940 O.2     1  UNL1       -0.1813
     15  O3         4.1700   -2.9260   -0.1300 O.2     1  UNL1       -0.1813
     16  C9         5.4440   -0.5600   -0.3280 C.ar    1  UNL1        0.2249
     17  C10        6.7590   -0.1800   -0.4710 C.ar    1  UNL1        0.0008
     18  C11        6.9490    0.9360    0.3540 C.ar    1  UNL1       -0.0220
     19  C12        5.7190    1.1520    0.9440 C.ar    1  UNL1        0.0942
     20  O4         4.8750    0.2470    0.5080 O.2     1  UNL1       -0.4472
     21  C13        1.1950   -1.4170   -1.0060 C.ar    1  UNL1       -0.0726
     22  C14       -2.8840   -0.0680    0.4340 C.ar    1  UNL1       -0.0158
     23  C15       -3.0620    0.1450   -1.0010 C.3     1  UNL1       -0.0255
     24  C16       -4.5700    0.0440   -1.2560 C.3     1  UNL1       -0.0487
     25  C17       -5.2490    1.1950   -0.5680 C.3     1  UNL1       -0.0486
     26  C18       -4.6790    1.5650    0.7580 C.3     1  UNL1       -0.0222
     27  C19       -3.6860    0.6180    1.3080 C.ar    1  UNL1        0.0232
     28 H          -2.5574   -0.5667    4.0976 H       1  UNL1        0.1921
     29 H          -1.5842   -2.0597   -0.7730 H       1  UNL1        0.0377
     30 H          -0.6585   -2.5337    0.6417 H       1  UNL1        0.0377
     31 H          -0.6776    0.9646    0.2699 H       1  UNL1        0.0620
     32 H           1.1673    2.3137   -0.4925 H       1  UNL1        0.0617
     33 H           3.0436    1.2732   -1.5883 H       1  UNL1        0.0606
     34 H           7.4682   -0.6303   -1.0704 H       1  UNL1        0.0669
     35 H           7.8168    1.4775    0.4908 H       1  UNL1        0.0650
     36 H           5.4997    1.9025    1.6176 H       1  UNL1        0.1030
     37 H           1.2160   -2.4383   -1.1528 H       1  UNL1        0.0608
     38 H          -2.5394   -0.6055   -1.5564 H       1  UNL1        0.0314
     39 H          -2.6739    1.0934   -1.3088 H       1  UNL1        0.0314
     40 H          -4.9410   -0.8801   -0.8644 H       1  UNL1        0.0268
     41 H          -4.7668    0.0779   -2.3072 H       1  UNL1        0.0268
     42 H          -6.2774    0.9361   -0.4260 H       1  UNL1        0.0269
     43 H          -5.1069    2.0459   -1.2010 H       1  UNL1        0.0269
     44 H          -5.4869    1.6384    1.4557 H       1  UNL1        0.0315
     45 H          -4.1559    2.4862    0.6073 H       1  UNL1        0.0315
@<TRIPOS>UNITY_ATOM_ATTR
12 1
charge -1
@<TRIPOS>BOND
     1     1     2    2
     2     2     3   ar
     3     2    27   ar
     4     3     4   ar
     5     4     5   ar
     6     5     6    1
     7     5    22   ar
     8     6     7    1
     9     7     8   ar
    10     7    21   ar
    11     8     9   ar
    12     9    10   ar
    13    10    11   ar
    14    11    12    1
    15    11    21   ar
    16    12    13    1
    17    13    14    2
    18    13    15    2
    19    13    16    1
    20    16    17   ar
    21    16    20   ar
    22    17    18   ar
    23    18    19   ar
    24    19    20   ar
    25    22    23    1
    26    22    27   ar
    27    23    24    1
    28    24    25    1
    29    25    26    1
    30    26    27    1
    31     3    28    1
    32     6    29    1
    33     6    30    1
    34     8    31    1
    35     9    32    1
    36    10    33    1
    37    17    34    1
    38    18    35    1
    39    19    36    1
    40    21    37    1
    41    23    38    1
    42    23    39    1
    43    24    40    1
    44    24    41    1
    45    25    42    1
    46    25    43    1
    47    26    44    1
    48    26    45    1
@<TRIPOS>MOLECULE
../data/bude_mols_rdkit_confs_charged/molecule_86.pdb
 45 48 0 0 0
SMALL
GASTEIGER

@<TRIPOS>ATOM
      1  O1        -4.0770    0.4450    3.3990 O.2     1  UNL1       -0.2661
      2  C1        -3.1890    0.0630    2.6030 C.ar    1  UNL1        0.2682
      3  N1        -1.9400   -0.2120    2.9990 N.ar    1  UNL1       -0.2427
      4  N2        -1.0520   -0.6040    2.1420 N.ar    1  UNL1       -0.1753
      5  C2        -1.2750   -0.7750    0.8060 C.ar    1  UNL1        0.0693
      6  C3        -0.1760   -1.1970   -0.0900 C.3     1  UNL1        0.0167
      7  C4         0.4750   -0.0950   -0.8230 C.ar    1  UNL1       -0.0427
      8  C5         0.1470    0.2160   -2.1140 C.ar    1  UNL1       -0.0583
      9  C6         0.7930    1.2750   -2.7610 C.ar    1  UNL1       -0.0626
     10  C7         1.7640    2.0310   -2.1440 C.ar    1  UNL1       -0.0761
     11  C8         2.0940    1.7270   -0.8620 C.ar    1  UNL1       -0.1289
     12  N3         3.0850    2.4490   -0.1420 N.pl3   1  UNL1       -0.5341
     13  S1         4.7460    2.0660   -0.1110 S.O2    1  UNL1       -0.0260
     14  O2         5.4590    3.0790    0.7290 O.2     1  UNL1       -0.1813
     15  O3         5.2910    2.1410   -1.5060 O.2     1  UNL1       -0.1813
     16  C9         5.0720    0.4770    0.5660 C.ar    1  UNL1        0.2249
     17  C10        5.8470    0.2460    1.6800 C.ar    1  UNL1        0.0008
     18  C11        5.8420   -1.1150    1.8610 C.ar    1  UNL1       -0.0220
     19  C12        5.0700   -1.6600    0.8610 C.ar    1  UNL1        0.0942
     20  O4         4.6420   -0.6770    0.1280 O.2     1  UNL1       -0.4472
     21  C13        1.4560    0.6810   -0.2220 C.ar    1  UNL1       -0.0726
     22  C14       -2.5490   -0.5020    0.3670 C.ar    1  UNL1       -0.0158
     23  C15       -2.9310   -0.6850   -1.0770 C.3     1  UNL1       -0.0255
     24  C16       -4.3000   -1.3870   -1.0910 C.3     1  UNL1       -0.0487
     25  C17       -5.3400   -0.5740   -0.4010 C.3     1  UNL1       -0.0486
     26  C18       -4.8750    0.2190    0.7650 C.3     1  UNL1       -0.0222
     27  C19       -3.5230   -0.0810    1.2460 C.ar    1  UNL1        0.0232
     28 H          -1.6952   -0.1156    3.9477 H       1  UNL1        0.1921
     29 H          -0.5745   -1.8848   -0.8062 H       1  UNL1        0.0377
     30 H           0.5757   -1.6315    0.5353 H       1  UNL1        0.0377
     31 H          -0.5754   -0.3293   -2.6097 H       1  UNL1        0.0620
     32 H           0.5325    1.4971   -3.7346 H       1  UNL1        0.0617
     33 H           2.2281    2.8069   -2.6415 H       1  UNL1        0.0606
     34 H           6.3313    0.9498    2.2590 H       1  UNL1        0.0669
     35 H           6.3278   -1.6337    2.6093 H       1  UNL1        0.0650
     36 H           4.8687   -2.6623    0.7198 H       1  UNL1        0.1030
     37 H           1.7226    0.4664    0.7516 H       1  UNL1        0.0608
     38 H          -2.2026   -1.2888   -1.5767 H       1  UNL1        0.0314
     39 H          -2.9779    0.2565   -1.5833 H       1  UNL1        0.0314
     40 H          -4.2113   -2.3309   -0.5949 H       1  UNL1        0.0268
     41 H          -4.5988   -1.5176   -2.1101 H       1  UNL1        0.0268
     42 H          -6.1046   -1.2405   -0.0603 H       1  UNL1        0.0269
     43 H          -5.6746    0.1414   -1.1229 H       1  UNL1        0.0269
     44 H          -5.5559    0.0454    1.5719 H       1  UNL1        0.0315
     45 H          -4.8442    1.2348    0.4302 H       1  UNL1        0.0315
@<TRIPOS>UNITY_ATOM_ATTR
12 1
charge -1
@<TRIPOS>BOND
     1     1     2    2
     2     2     3   ar
     3     2    27   ar
     4     3     4   ar
     5     4     5   ar
     6     5     6    1
     7     5    22   ar
     8     6     7    1
     9     7     8   ar
    10     7    21   ar
    11     8     9   ar
    12     9    10   ar
    13    10    11   ar
    14    11    12    1
    15    11    21   ar
    16    12    13    1
    17    13    14    2
    18    13    15    2
    19    13    16    1
    20    16    17   ar
    21    16    20   ar
    22    17    18   ar
    23    18    19   ar
    24    19    20   ar
    25    22    23    1
    26    22    27   ar
    27    23    24    1
    28    24    25    1
    29    25    26    1
    30    26    27    1
    31     3    28    1
    32     6    29    1
    33     6    30    1
    34     8    31    1
    35     9    32    1
    36    10    33    1
    37    17    34    1
    38    18    35    1
    39    19    36    1
    40    21    37    1
    41    23    38    1
    42    23    39    1
    43    24    40    1
    44    24    41    1
    45    25    42    1
    46    25    43    1
    47    26    44    1
    48    26    45    1
@<TRIPOS>MOLECULE
../data/bude_mols_rdkit_confs_charged/molecule_86.pdb
 45 48 0 0 0
SMALL
GASTEIGER

@<TRIPOS>ATOM
      1  O1        -4.6540    2.6370   -1.7250 O.2     1  UNL1       -0.2661
      2  C1        -3.8020    1.7640   -1.4470 C.ar    1  UNL1        0.2682
      3  N1        -2.5890    1.7410   -2.0180 N.ar    1  UNL1       -0.2427
      4  N2        -1.6990    0.8140   -1.7140 N.ar    1  UNL1       -0.1753
      5  C2        -2.0190   -0.1560   -0.7870 C.ar    1  UNL1        0.0693
      6  C3        -0.9440   -1.1220   -0.4660 C.3     1  UNL1        0.0167
      7  C4         0.3840   -0.4380   -0.6140 C.ar    1  UNL1       -0.0427
      8  C5         0.8530   -0.2430   -1.9080 C.ar    1  UNL1       -0.0583
      9  C6         2.0600    0.4150   -2.1170 C.ar    1  UNL1       -0.0626
     10  C7         2.7930    0.8740   -1.0170 C.ar    1  UNL1       -0.0761
     11  C8         2.3470    0.6860    0.2520 C.ar    1  UNL1       -0.1289
     12  N3         3.0520    1.1330    1.3980 N.pl3   1  UNL1       -0.5341
     13  S1         4.1760    0.2100    2.2840 S.O2    1  UNL1       -0.0260
     14  O2         3.4990   -1.0410    2.8400 O.2     1  UNL1       -0.1813
     15  O3         4.6540    0.9890    3.5100 O.2     1  UNL1       -0.1813
     16  C9         5.5950   -0.2900    1.4240 C.ar    1  UNL1        0.2249
     17  C10        6.0430    0.1740    0.2080 C.ar    1  UNL1        0.0008
     18  C11        7.2340   -0.5070   -0.1060 C.ar    1  UNL1       -0.0220
     19  C12        7.4300   -1.3460    0.9490 C.ar    1  UNL1        0.0942
     20  O4         6.4700   -1.2120    1.8360 O.2     1  UNL1       -0.4472
     21  C13        1.1170    0.0160    0.4330 C.ar    1  UNL1       -0.0726
     22  C14       -3.2380   -0.1850   -0.1740 C.ar    1  UNL1       -0.0158
     23  C15       -3.5690   -1.2400    0.7750 C.3     1  UNL1       -0.0255
     24  C16       -4.8270   -1.0650    1.5470 C.3     1  UNL1       -0.0487
     25  C17       -5.3760    0.3410    1.5460 C.3     1  UNL1       -0.0486
     26  C18       -5.5060    0.8070    0.1130 C.3     1  UNL1       -0.0222
     27  C19       -4.1660    0.7930   -0.5010 C.ar    1  UNL1        0.0232
     28 H          -2.3563    2.4318   -2.6798 H       1  UNL1        0.1921
     29 H          -0.9964   -1.9538   -1.1370 H       1  UNL1        0.0377
     30 H          -1.0607   -1.4742    0.5376 H       1  UNL1        0.0377
     31 H           0.3058   -0.5863   -2.7128 H       1  UNL1        0.0620
     32 H           2.4123    0.5636   -3.0755 H       1  UNL1        0.0617
     33 H           3.6879    1.3638   -1.1727 H       1  UNL1        0.0606
     34 H           5.5857    0.8949   -0.3718 H       1  UNL1        0.0669
     35 H           7.8246   -0.3959   -0.9450 H       1  UNL1        0.0650
     36 H           8.2246   -1.9983    1.0393 H       1  UNL1        0.1030
     37 H           0.7650   -0.1328    1.3916 H       1  UNL1        0.0608
     38 H          -2.7641   -1.3110    1.4764 H       1  UNL1        0.0314
     39 H          -3.7196   -2.1179    0.1822 H       1  UNL1        0.0314
     40 H          -4.6380   -1.3485    2.5613 H       1  UNL1        0.0268
     41 H          -5.5629   -1.6776    1.0694 H       1  UNL1        0.0268
     42 H          -4.7097    0.9886    2.0766 H       1  UNL1        0.0269
     43 H          -6.3326    0.3603    2.0250 H       1  UNL1        0.0269
     44 H          -5.9043    1.7999    0.0900 H       1  UNL1        0.0315
     45 H          -6.1659    0.1604   -0.4268 H       1  UNL1        0.0315
@<TRIPOS>UNITY_ATOM_ATTR
12 1
charge -1
@<TRIPOS>BOND
     1     1     2    2
     2     2     3   ar
     3     2    27   ar
     4     3     4   ar
     5     4     5   ar
     6     5     6    1
     7     5    22   ar
     8     6     7    1
     9     7     8   ar
    10     7    21   ar
    11     8     9   ar
    12     9    10   ar
    13    10    11   ar
    14    11    12    1
    15    11    21   ar
    16    12    13    1
    17    13    14    2
    18    13    15    2
    19    13    16    1
    20    16    17   ar
    21    16    20   ar
    22    17    18   ar
    23    18    19   ar
    24    19    20   ar
    25    22    23    1
    26    22    27   ar
    27    23    24    1
    28    24    25    1
    29    25    26    1
    30    26    27    1
    31     3    28    1
    32     6    29    1
    33     6    30    1
    34     8    31    1
    35     9    32    1
    36    10    33    1
    37    17    34    1
    38    18    35    1
    39    19    36    1
    40    21    37    1
    41    23    38    1
    42    23    39    1
    43    24    40    1
    44    24    41    1
    45    25    42    1
    46    25    43    1
    47    26    44    1
    48    26    45    1
@<TRIPOS>MOLECULE
../data/bude_mols_rdkit_confs_charged/molecule_86.pdb
 45 48 0 0 0
SMALL
GASTEIGER

@<TRIPOS>ATOM
      1  O1        -4.7470    2.8460    0.9820 O.2     1  UNL1       -0.2661
      2  C1        -3.9170    2.0910    0.4090 C.ar    1  UNL1        0.2682
      3  N1        -3.1490    2.6660   -0.5470 N.ar    1  UNL1       -0.2427
      4  N2        -2.2690    1.9380   -1.1790 N.ar    1  UNL1       -0.1753
      5  C2        -2.0950    0.6100   -0.9050 C.ar    1  UNL1        0.0693
      6  C3        -1.0540   -0.0950   -1.6570 C.3     1  UNL1        0.0167
      7  C4         0.1630   -0.2070   -0.8170 C.ar    1  UNL1       -0.0427
      8  C5         0.4890   -1.3640   -0.1770 C.ar    1  UNL1       -0.0583
      9  C6         1.6430   -1.4360    0.6170 C.ar    1  UNL1       -0.0626
     10  C7         2.4380   -0.3220    0.7380 C.ar    1  UNL1       -0.0761
     11  C8         2.1450    0.8720    0.1080 C.ar    1  UNL1       -0.1289
     12  N3         2.9800    2.0150    0.2460 N.pl3   1  UNL1       -0.5341
     13  S1         4.2650    2.1870   -0.9220 S.O2    1  UNL1       -0.0260
     14  O2         5.0210    3.4580   -0.7090 O.2     1  UNL1       -0.1813
     15  O3         3.7040    2.2160   -2.3180 O.2     1  UNL1       -0.1813
     16  C9         5.3060    0.8010   -0.7390 C.ar    1  UNL1        0.2249
     17  C10        5.6090   -0.1440   -1.6900 C.ar    1  UNL1        0.0008
     18  C11        6.4650   -1.0560   -1.1180 C.ar    1  UNL1       -0.0220
     19  C12        6.6530   -0.6270    0.1740 C.ar    1  UNL1        0.0942
     20  O4         5.9470    0.4770    0.3550 O.2     1  UNL1       -0.4472
     21  C13        1.0020    0.8910   -0.6600 C.ar    1  UNL1       -0.0726
     22  C14       -2.8600    0.0130    0.0550 C.ar    1  UNL1       -0.0158
     23  C15       -2.7530   -1.4110    0.3900 C.3     1  UNL1       -0.0255
     24  C16       -4.1140   -2.0230    0.6780 C.3     1  UNL1       -0.0487
     25  C17       -4.9370   -1.2650    1.6530 C.3     1  UNL1       -0.0486
     26  C18       -4.6390    0.1850    1.7890 C.3     1  UNL1       -0.0222
     27  C19       -3.7920    0.7580    0.7340 C.ar    1  UNL1        0.0232
     28 H          -3.2532    3.6210   -0.7625 H       1  UNL1        0.1921
     29 H          -0.8247    0.4507   -2.5484 H       1  UNL1        0.0377
     30 H          -1.4003   -1.0726   -1.9204 H       1  UNL1        0.0377
     31 H          -0.1170   -2.1933   -0.2769 H       1  UNL1        0.0620
     32 H           1.8911   -2.3121    1.1027 H       1  UNL1        0.0617
     33 H           3.2869   -0.3794    1.3221 H       1  UNL1        0.0606
     34 H           5.2571   -0.1654   -2.6599 H       1  UNL1        0.0669
     35 H           6.8795   -1.8885   -1.5655 H       1  UNL1        0.0650
     36 H           7.2447   -1.0880    0.8829 H       1  UNL1        0.1030
     37 H           0.7547    1.7675   -1.1453 H       1  UNL1        0.0608
     38 H          -2.1340   -1.5182    1.2562 H       1  UNL1        0.0314
     39 H          -2.3282   -1.9208   -0.4494 H       1  UNL1        0.0314
     40 H          -3.9618   -3.0090    1.0647 H       1  UNL1        0.0268
     41 H          -4.6529   -2.0140   -0.2463 H       1  UNL1        0.0268
     42 H          -4.8003   -1.7162    2.6135 H       1  UNL1        0.0269
     43 H          -5.9374   -1.3137    1.2765 H       1  UNL1        0.0269
     44 H          -4.1442    0.3335    2.7260 H       1  UNL1        0.0315
     45 H          -5.5811    0.6869    1.7146 H       1  UNL1        0.0315
@<TRIPOS>UNITY_ATOM_ATTR
12 1
charge -1
@<TRIPOS>BOND
     1     1     2    2
     2     2     3   ar
     3     2    27   ar
     4     3     4   ar
     5     4     5   ar
     6     5     6    1
     7     5    22   ar
     8     6     7    1
     9     7     8   ar
    10     7    21   ar
    11     8     9   ar
    12     9    10   ar
    13    10    11   ar
    14    11    12    1
    15    11    21   ar
    16    12    13    1
    17    13    14    2
    18    13    15    2
    19    13    16    1
    20    16    17   ar
    21    16    20   ar
    22    17    18   ar
    23    18    19   ar
    24    19    20   ar
    25    22    23    1
    26    22    27   ar
    27    23    24    1
    28    24    25    1
    29    25    26    1
    30    26    27    1
    31     3    28    1
    32     6    29    1
    33     6    30    1
    34     8    31    1
    35     9    32    1
    36    10    33    1
    37    17    34    1
    38    18    35    1
    39    19    36    1
    40    21    37    1
    41    23    38    1
    42    23    39    1
    43    24    40    1
    44    24    41    1
    45    25    42    1
    46    25    43    1
    47    26    44    1
    48    26    45    1
@<TRIPOS>MOLECULE
../data/bude_mols_rdkit_confs_charged/molecule_86.pdb
 45 48 0 0 0
SMALL
GASTEIGER

@<TRIPOS>ATOM
      1  O1        -4.6210    2.6460   -0.6170 O.2     1  UNL1       -0.2661
      2  C1        -3.8760    1.9100    0.0900 C.ar    1  UNL1        0.2682
      3  N1        -3.6190    2.2550    1.3870 N.ar    1  UNL1       -0.2427
      4  N2        -2.8460    1.5060    2.1460 N.ar    1  UNL1       -0.1753
      5  C2        -2.2740    0.3680    1.6820 C.ar    1  UNL1        0.0693
      6  C3        -1.3950   -0.4000    2.5640 C.3     1  UNL1        0.0167
      7  C4         0.0540   -0.1580    2.3340 C.ar    1  UNL1       -0.0427
      8  C5         0.6570    1.0020    2.8400 C.ar    1  UNL1       -0.0583
      9  C6         1.9980    1.2490    2.6570 C.ar    1  UNL1       -0.0626
     10  C7         2.7800    0.3490    1.9650 C.ar    1  UNL1       -0.0761
     11  C8         2.2180   -0.7960    1.4580 C.ar    1  UNL1       -0.1289
     12  N3         3.0340   -1.7110    0.7550 N.pl3   1  UNL1       -0.5341
     13  S1         3.2970   -1.6620   -0.9310 S.O2    1  UNL1       -0.0260
     14  O2         2.0140   -1.7640   -1.7100 O.2     1  UNL1       -0.1813
     15  O3         4.1710   -2.8120   -1.3740 O.2     1  UNL1       -0.1813
     16  C9         4.0660   -0.1450   -1.3450 C.ar    1  UNL1        0.2249
     17  C10        5.3200   -0.0290   -1.9540 C.ar    1  UNL1        0.0008
     18  C11        5.5950    1.3120   -2.1250 C.ar    1  UNL1       -0.0220
     19  C12        4.4960    1.9670   -1.6130 C.ar    1  UNL1        0.0942
     20  O4         3.6460    1.0640   -1.1780 O.2     1  UNL1       -0.4472
     21  C13        0.8490   -1.0210    1.6600 C.ar    1  UNL1       -0.0726
     22  C14       -2.5170   -0.0040    0.3830 C.ar    1  UNL1       -0.0158
     23  C15       -1.9340   -1.2500   -0.1670 C.3     1  UNL1       -0.0255
     24  C16       -2.7940   -1.9490   -1.1840 C.3     1  UNL1       -0.0487
     25  C17       -3.9370   -1.1550   -1.7120 C.3     1  UNL1       -0.0486
     26  C18       -3.5370    0.3190   -1.8240 C.3     1  UNL1       -0.0222
     27  C19       -3.3290    0.7700   -0.4410 C.ar    1  UNL1        0.0232
     28 H          -4.0172    3.0748    1.7593 H       1  UNL1        0.1921
     29 H          -1.5907   -1.4407    2.4109 H       1  UNL1        0.0377
     30 H          -1.6068   -0.0836    3.5640 H       1  UNL1        0.0377
     31 H           0.0835    1.6843    3.3602 H       1  UNL1        0.0620
     32 H           2.4195    2.1102    3.0387 H       1  UNL1        0.0617
     33 H           3.7857    0.5357    1.8285 H       1  UNL1        0.0606
     34 H           5.9338   -0.8120   -2.2282 H       1  UNL1        0.0669
     35 H           6.4389    1.7325   -2.5445 H       1  UNL1        0.0650
     36 H           4.3634    2.9898   -1.5773 H       1  UNL1        0.1030
     37 H           0.4291   -1.8828    1.2778 H       1  UNL1        0.0608
     38 H          -1.7626   -1.9250    0.6453 H       1  UNL1        0.0314
     39 H          -1.0356   -0.9660   -0.6740 H       1  UNL1        0.0314
     40 H          -3.1892   -2.8333   -0.7294 H       1  UNL1        0.0268
     41 H          -2.1584   -2.1420   -2.0229 H       1  UNL1        0.0268
     42 H          -4.7706   -1.2473   -1.0476 H       1  UNL1        0.0269
     43 H          -4.2052   -1.5228   -2.6803 H       1  UNL1        0.0269
     44 H          -4.3168    0.8847   -2.2895 H       1  UNL1        0.0315
     45 H          -2.6600    0.4502   -2.4227 H       1  UNL1        0.0315
@<TRIPOS>UNITY_ATOM_ATTR
12 1
charge -1
@<TRIPOS>BOND
     1     1     2    2
     2     2     3   ar
     3     2    27   ar
     4     3     4   ar
     5     4     5   ar
     6     5     6    1
     7     5    22   ar
     8     6     7    1
     9     7     8   ar
    10     7    21   ar
    11     8     9   ar
    12     9    10   ar
    13    10    11   ar
    14    11    12    1
    15    11    21   ar
    16    12    13    1
    17    13    14    2
    18    13    15    2
    19    13    16    1
    20    16    17   ar
    21    16    20   ar
    22    17    18   ar
    23    18    19   ar
    24    19    20   ar
    25    22    23    1
    26    22    27   ar
    27    23    24    1
    28    24    25    1
    29    25    26    1
    30    26    27    1
    31     3    28    1
    32     6    29    1
    33     6    30    1
    34     8    31    1
    35     9    32    1
    36    10    33    1
    37    17    34    1
    38    18    35    1
    39    19    36    1
    40    21    37    1
    41    23    38    1
    42    23    39    1
    43    24    40    1
    44    24    41    1
    45    25    42    1
    46    25    43    1
    47    26    44    1
    48    26    45    1
@<TRIPOS>MOLECULE
../data/bude_mols_rdkit_confs_charged/molecule_86.pdb
 45 48 0 0 0
SMALL
GASTEIGER

@<TRIPOS>ATOM
      1  O1        -3.3200    1.8150   -3.0330 O.2     1  UNL1       -0.2661
      2  C1        -2.8000    1.2950   -1.9830 C.ar    1  UNL1        0.2682
      3  N1        -1.5720    1.5790   -1.5850 N.ar    1  UNL1       -0.2427
      4  N2        -1.0590    1.0320   -0.5020 N.ar    1  UNL1       -0.1753
      5  C2        -1.7070    0.1640    0.2780 C.ar    1  UNL1        0.0693
      6  C3        -1.0780   -0.3840    1.4650 C.3     1  UNL1        0.0167
      7  C4         0.3430   -0.1650    1.6460 C.ar    1  UNL1       -0.0427
      8  C5         0.8350    0.9340    2.2810 C.ar    1  UNL1       -0.0583
      9  C6         2.1850    1.1560    2.4780 C.ar    1  UNL1       -0.0626
     10  C7         3.1050    0.2440    2.0250 C.ar    1  UNL1       -0.0761
     11  C8         2.6380   -0.8990    1.3660 C.ar    1  UNL1       -0.1289
     12  N3         3.5570   -1.8710    0.8930 N.pl3   1  UNL1       -0.5341
     13  S1         4.1910   -1.7340   -0.7020 S.O2    1  UNL1       -0.0260
     14  O2         5.0490   -2.9450   -0.9380 O.2     1  UNL1       -0.1813
     15  O3         3.0200   -1.7330   -1.6750 O.2     1  UNL1       -0.1813
     16  C9         5.1030   -0.2670   -0.9280 C.ar    1  UNL1        0.2249
     17  C10        6.4590   -0.2460   -1.2720 C.ar    1  UNL1        0.0008
     18  C11        6.8000    1.0650   -1.3520 C.ar    1  UNL1       -0.0220
     19  C12        5.6790    1.8130   -1.0640 C.ar    1  UNL1        0.0942
     20  O4         4.6930    0.9610   -0.8180 O.2     1  UNL1       -0.4472
     21  C13        1.2700   -1.0890    1.1850 C.ar    1  UNL1       -0.0726
     22  C14       -2.9920   -0.1550   -0.1090 C.ar    1  UNL1       -0.0158
     23  C15       -3.8070   -1.0980    0.6540 C.3     1  UNL1       -0.0255
     24  C16       -5.2080   -0.5460    0.7450 C.3     1  UNL1       -0.0487
     25  C17       -5.8300   -0.4630   -0.6030 C.3     1  UNL1       -0.0486
     26  C18       -4.9490    0.0640   -1.6770 C.3     1  UNL1       -0.0222
     27  C19       -3.5620    0.3960   -1.2360 C.ar    1  UNL1        0.0232
     28 H          -1.0297    2.2122   -2.1086 H       1  UNL1        0.1921
     29 H          -1.2372   -1.4420    1.4495 H       1  UNL1        0.0377
     30 H          -1.5346    0.1433    2.2764 H       1  UNL1        0.0377
     31 H           0.1664    1.6368    2.6331 H       1  UNL1        0.0620
     32 H           2.5014    2.0084    2.9662 H       1  UNL1        0.0617
     33 H           4.1157    0.3971    2.1667 H       1  UNL1        0.0606
     34 H           7.0732   -1.0597   -1.4319 H       1  UNL1        0.0669
     35 H           7.7338    1.4363   -1.5870 H       1  UNL1        0.0650
     36 H           5.6182    2.8430   -1.0436 H       1  UNL1        0.1030
     37 H           0.9385   -1.9358    0.6972 H       1  UNL1        0.0608
     38 H          -3.3999   -1.2159    1.6365 H       1  UNL1        0.0314
     39 H          -3.8171   -2.0525    0.1705 H       1  UNL1        0.0314
     40 H          -5.1724    0.4327    1.1760 H       1  UNL1        0.0268
     41 H          -5.7958   -1.1997    1.3549 H       1  UNL1        0.0268
     42 H          -6.6854    0.1761   -0.5337 H       1  UNL1        0.0269
     43 H          -6.0677   -1.4683   -0.8818 H       1  UNL1        0.0269
     44 H          -5.3964    0.9533   -2.0693 H       1  UNL1        0.0315
     45 H          -4.8576   -0.7157   -2.4041 H       1  UNL1        0.0315
@<TRIPOS>UNITY_ATOM_ATTR
12 1
charge -1
@<TRIPOS>BOND
     1     1     2    2
     2     2     3   ar
     3     2    27   ar
     4     3     4   ar
     5     4     5   ar
     6     5     6    1
     7     5    22   ar
     8     6     7    1
     9     7     8   ar
    10     7    21   ar
    11     8     9   ar
    12     9    10   ar
    13    10    11   ar
    14    11    12    1
    15    11    21   ar
    16    12    13    1
    17    13    14    2
    18    13    15    2
    19    13    16    1
    20    16    17   ar
    21    16    20   ar
    22    17    18   ar
    23    18    19   ar
    24    19    20   ar
    25    22    23    1
    26    22    27   ar
    27    23    24    1
    28    24    25    1
    29    25    26    1
    30    26    27    1
    31     3    28    1
    32     6    29    1
    33     6    30    1
    34     8    31    1
    35     9    32    1
    36    10    33    1
    37    17    34    1
    38    18    35    1
    39    19    36    1
    40    21    37    1
    41    23    38    1
    42    23    39    1
    43    24    40    1
    44    24    41    1
    45    25    42    1
    46    25    43    1
    47    26    44    1
    48    26    45    1
@<TRIPOS>MOLECULE
../data/bude_mols_rdkit_confs_charged/molecule_86.pdb
 45 48 0 0 0
SMALL
GASTEIGER

@<TRIPOS>ATOM
      1  O1        -5.3250   -2.7640    1.0460 O.2     1  UNL1       -0.2661
      2  C1        -4.2970   -2.0670    1.2730 C.ar    1  UNL1        0.2682
      3  N1        -3.5030   -2.3560    2.3000 N.ar    1  UNL1       -0.2427
      4  N2        -2.4380   -1.6230    2.5220 N.ar    1  UNL1       -0.1753
      5  C2        -2.0910   -0.5560    1.7410 C.ar    1  UNL1        0.0693
      6  C3        -0.8400    0.1880    2.1040 C.3     1  UNL1        0.0167
      7  C4         0.2750   -0.2320    1.2360 C.ar    1  UNL1       -0.0427
      8  C5         0.8960   -1.4300    1.5700 C.ar    1  UNL1       -0.0583
      9  C6         1.9470   -1.8550    0.8010 C.ar    1  UNL1       -0.0626
     10  C7         2.3920   -1.1130   -0.2920 C.ar    1  UNL1       -0.0761
     11  C8         1.7840    0.0780   -0.6340 C.ar    1  UNL1       -0.1289
     12  N3         2.2590    0.8100   -1.7550 N.pl3   1  UNL1       -0.5341
     13  S1         3.4920    1.9790   -1.4770 S.O2    1  UNL1       -0.0260
     14  O2         2.9130    3.0100   -0.5460 O.2     1  UNL1       -0.1813
     15  O3         3.7470    2.6600   -2.7920 O.2     1  UNL1       -0.1813
     16  C9         4.9480    1.2820   -0.8520 C.ar    1  UNL1        0.2249
     17  C10        6.1850    1.3690   -1.5020 C.ar    1  UNL1        0.0008
     18  C11        7.1090    0.7120   -0.7320 C.ar    1  UNL1       -0.0220
     19  C12        6.4230    0.2460    0.3560 C.ar    1  UNL1        0.0942
     20  O4         5.1780    0.6070    0.2290 O.2     1  UNL1       -0.4472
     21  C13        0.7210    0.4910    0.1570 C.ar    1  UNL1       -0.0726
     22  C14       -2.8960   -0.2570    0.6940 C.ar    1  UNL1       -0.0158
     23  C15       -2.5590    0.9070   -0.1760 C.3     1  UNL1       -0.0255
     24  C16       -3.8270    1.4130   -0.8680 C.3     1  UNL1       -0.0487
     25  C17       -4.3640    0.2080   -1.6610 C.3     1  UNL1       -0.0486
     26  C18       -4.9670   -0.7390   -0.6880 C.3     1  UNL1       -0.0222
     27  C19       -4.0280   -1.0050    0.4250 C.ar    1  UNL1        0.0232
     28 H          -3.7132   -3.1155    2.8901 H       1  UNL1        0.1921
     29 H          -0.5903   -0.0178    3.1239 H       1  UNL1        0.0377
     30 H          -1.0079    1.2365    1.9722 H       1  UNL1        0.0377
     31 H           0.5732   -1.9856    2.3775 H       1  UNL1        0.0620
     32 H           2.4188   -2.7423    1.0356 H       1  UNL1        0.0617
     33 H           3.1864   -1.4587   -0.8528 H       1  UNL1        0.0606
     34 H           6.3682    1.8430   -2.4002 H       1  UNL1        0.0669
     35 H           8.1145    0.5933   -0.9317 H       1  UNL1        0.0650
     36 H           6.8214   -0.2957    1.1388 H       1  UNL1        0.1030
     37 H           0.2464    1.3775   -0.0751 H       1  UNL1        0.0608
     38 H          -1.8461    0.6052   -0.9147 H       1  UNL1        0.0314
     39 H          -2.1435    1.6904    0.4228 H       1  UNL1        0.0314
     40 H          -3.5963    2.2233   -1.5276 H       1  UNL1        0.0268
     41 H          -4.5454    1.7811   -0.1657 H       1  UNL1        0.0268
     42 H          -3.5630   -0.2693   -2.1859 H       1  UNL1        0.0269
     43 H          -5.0930    0.5249   -2.3773 H       1  UNL1        0.0269
     44 H          -5.1932   -1.6589   -1.1856 H       1  UNL1        0.0315
     45 H          -5.8610   -0.3054   -0.2910 H       1  UNL1        0.0315
@<TRIPOS>UNITY_ATOM_ATTR
12 1
charge -1
@<TRIPOS>BOND
     1     1     2    2
     2     2     3   ar
     3     2    27   ar
     4     3     4   ar
     5     4     5   ar
     6     5     6    1
     7     5    22   ar
     8     6     7    1
     9     7     8   ar
    10     7    21   ar
    11     8     9   ar
    12     9    10   ar
    13    10    11   ar
    14    11    12    1
    15    11    21   ar
    16    12    13    1
    17    13    14    2
    18    13    15    2
    19    13    16    1
    20    16    17   ar
    21    16    20   ar
    22    17    18   ar
    23    18    19   ar
    24    19    20   ar
    25    22    23    1
    26    22    27   ar
    27    23    24    1
    28    24    25    1
    29    25    26    1
    30    26    27    1
    31     3    28    1
    32     6    29    1
    33     6    30    1
    34     8    31    1
    35     9    32    1
    36    10    33    1
    37    17    34    1
    38    18    35    1
    39    19    36    1
    40    21    37    1
    41    23    38    1
    42    23    39    1
    43    24    40    1
    44    24    41    1
    45    25    42    1
    46    25    43    1
    47    26    44    1
    48    26    45    1
@<TRIPOS>MOLECULE
../data/bude_mols_rdkit_confs_charged/molecule_86.pdb
 45 48 0 0 0
SMALL
GASTEIGER

@<TRIPOS>ATOM
      1  O1        -4.7670    1.7860   -2.6680 O.2     1  UNL1       -0.2661
      2  C1        -3.8700    1.2690   -1.9500 C.ar    1  UNL1        0.2682
      3  N1        -2.5870    1.2220   -2.3820 N.ar    1  UNL1       -0.2427
      4  N2        -1.6300    0.6750   -1.6260 N.ar    1  UNL1       -0.1753
      5  C2        -1.8900    0.1460   -0.4020 C.ar    1  UNL1        0.0693
      6  C3        -0.8540   -0.4690    0.4610 C.3     1  UNL1        0.0167
      7  C4         0.4570   -0.3600   -0.2190 C.ar    1  UNL1       -0.0427
      8  C5         0.8900   -1.3580   -1.0530 C.ar    1  UNL1       -0.0583
      9  C6         2.1220   -1.2850   -1.7100 C.ar    1  UNL1       -0.0626
     10  C7         2.9080   -0.1780   -1.5040 C.ar    1  UNL1       -0.0761
     11  C8         2.5040    0.8430   -0.6730 C.ar    1  UNL1       -0.1289
     12  N3         3.3530    1.9500   -0.5030 N.pl3   1  UNL1       -0.5341
     13  S1         4.5170    1.9280    0.7590 S.O2    1  UNL1       -0.0260
     14  O2         5.2650    3.2530    0.6680 O.2     1  UNL1       -0.1813
     15  O3         3.8770    1.8590    2.1120 O.2     1  UNL1       -0.1813
     16  C9         5.6750    0.6210    0.5690 C.ar    1  UNL1        0.2249
     17  C10        5.8600   -0.3710    1.4810 C.ar    1  UNL1        0.0008
     18  C11        6.8410   -1.2050    0.9910 C.ar    1  UNL1       -0.0220
     19  C12        7.2080   -0.6710   -0.2130 C.ar    1  UNL1        0.0942
     20  O4         6.4960    0.4080   -0.4260 O.2     1  UNL1       -0.4472
     21  C13        1.2690    0.7370   -0.0340 C.ar    1  UNL1       -0.0726
     22  C14       -3.1800    0.1830    0.0540 C.ar    1  UNL1       -0.0158
     23  C15       -3.5180   -0.3780    1.3830 C.3     1  UNL1       -0.0255
     24  C16       -4.7490   -1.2250    1.2190 C.3     1  UNL1       -0.0487
     25  C17       -5.8330   -0.6200    0.3970 C.3     1  UNL1       -0.0486
     26  C18       -5.5500    0.7450   -0.1470 C.3     1  UNL1       -0.0222
     27  C19       -4.1800    0.7430   -0.7120 C.ar    1  UNL1        0.0232
     28 H          -2.3566    1.5952   -3.2634 H       1  UNL1        0.1921
     29 H          -1.0890   -1.4996    0.6267 H       1  UNL1        0.0377
     30 H          -0.8185    0.0357    1.4038 H       1  UNL1        0.0377
     31 H           0.2907   -2.1852   -1.1998 H       1  UNL1        0.0620
     32 H           2.4333   -2.0450   -2.3349 H       1  UNL1        0.0617
     33 H           3.8202   -0.1098   -1.9818 H       1  UNL1        0.0606
     34 H           5.3576   -0.4791    2.3760 H       1  UNL1        0.0669
     35 H           7.2194   -2.0544    1.4387 H       1  UNL1        0.0650
     36 H           7.9259   -1.0539   -0.8479 H       1  UNL1        0.1030
     37 H           0.9568    1.4967    0.5908 H       1  UNL1        0.0608
     38 H          -3.7101    0.4147    2.0755 H       1  UNL1        0.0314
     39 H          -2.7064   -0.9638    1.7611 H       1  UNL1        0.0314
     40 H          -5.1449   -1.4247    2.1928 H       1  UNL1        0.0268
     41 H          -4.4358   -2.1037    0.6949 H       1  UNL1        0.0268
     42 H          -6.7105   -0.5558    1.0060 H       1  UNL1        0.0269
     43 H          -5.9423   -1.2569   -0.4558 H       1  UNL1        0.0269
     44 H          -5.6170    1.4689    0.6381 H       1  UNL1        0.0315
     45 H          -6.2622    0.9959   -0.9051 H       1  UNL1        0.0315
@<TRIPOS>UNITY_ATOM_ATTR
12 1
charge -1
@<TRIPOS>BOND
     1     1     2    2
     2     2     3   ar
     3     2    27   ar
     4     3     4   ar
     5     4     5   ar
     6     5     6    1
     7     5    22   ar
     8     6     7    1
     9     7     8   ar
    10     7    21   ar
    11     8     9   ar
    12     9    10   ar
    13    10    11   ar
    14    11    12    1
    15    11    21   ar
    16    12    13    1
    17    13    14    2
    18    13    15    2
    19    13    16    1
    20    16    17   ar
    21    16    20   ar
    22    17    18   ar
    23    18    19   ar
    24    19    20   ar
    25    22    23    1
    26    22    27   ar
    27    23    24    1
    28    24    25    1
    29    25    26    1
    30    26    27    1
    31     3    28    1
    32     6    29    1
    33     6    30    1
    34     8    31    1
    35     9    32    1
    36    10    33    1
    37    17    34    1
    38    18    35    1
    39    19    36    1
    40    21    37    1
    41    23    38    1
    42    23    39    1
    43    24    40    1
    44    24    41    1
    45    25    42    1
    46    25    43    1
    47    26    44    1
    48    26    45    1
@<TRIPOS>MOLECULE
../data/bude_mols_rdkit_confs_charged/molecule_86.pdb
 45 48 0 0 0
SMALL
GASTEIGER

@<TRIPOS>ATOM
      1  O1        -2.9770    1.5120   -3.3780 O.2     1  UNL1       -0.2661
      2  C1        -2.6140    1.1260   -2.2410 C.ar    1  UNL1        0.2682
      3  N1        -1.3410    1.3020   -1.8520 N.ar    1  UNL1       -0.2427
      4  N2        -0.9110    0.9160   -0.6700 N.ar    1  UNL1       -0.1753
      5  C2        -1.7020    0.3220    0.2290 C.ar    1  UNL1        0.0693
      6  C3        -1.2710   -0.1290    1.5650 C.3     1  UNL1        0.0167
      7  C4         0.1370    0.1230    1.8610 C.ar    1  UNL1       -0.0427
      8  C5         0.5320    1.2990    2.4510 C.ar    1  UNL1       -0.0583
      9  C6         1.8600    1.5630    2.7430 C.ar    1  UNL1       -0.0626
     10  C7         2.8250    0.6110    2.4300 C.ar    1  UNL1       -0.0761
     11  C8         2.4780   -0.5790    1.8380 C.ar    1  UNL1       -0.1289
     12  N3         3.4130   -1.5870    1.5350 N.pl3   1  UNL1       -0.5341
     13  S1         4.2380   -1.8830    0.1030 S.O2    1  UNL1       -0.0260
     14  O2         5.0550   -3.1590    0.1570 O.2     1  UNL1       -0.1813
     15  O3         3.2290   -2.1050   -1.0310 O.2     1  UNL1       -0.1813
     16  C9         5.2980   -0.6220   -0.4540 C.ar    1  UNL1        0.2249
     17  C10        5.6280    0.6000    0.0340 C.ar    1  UNL1        0.0008
     18  C11        6.5370    1.1820   -0.8440 C.ar    1  UNL1       -0.0220
     19  C12        6.7040    0.2500   -1.8330 C.ar    1  UNL1        0.0942
     20  O4         5.9810   -0.7850   -1.5930 O.2     1  UNL1       -0.4472
     21  C13        1.1250   -0.7830    1.5720 C.ar    1  UNL1       -0.0726
     22  C14       -3.0150    0.1220   -0.1260 C.ar    1  UNL1       -0.0158
     23  C15       -4.0160   -0.5200    0.7560 C.3     1  UNL1       -0.0255
     24  C16       -4.7710   -1.5210   -0.0900 C.3     1  UNL1       -0.0487
     25  C17       -5.6040   -0.7630   -1.0690 C.3     1  UNL1       -0.0486
     26  C18       -4.8810    0.3280   -1.7880 C.3     1  UNL1       -0.0222
     27  C19       -3.4890    0.5190   -1.3630 C.ar    1  UNL1        0.0232
     28 H          -0.7090    1.7338   -2.4712 H       1  UNL1        0.1921
     29 H          -1.4444   -1.1825    1.6348 H       1  UNL1        0.0377
     30 H          -1.8384    0.4347    2.2757 H       1  UNL1        0.0377
     31 H          -0.1820    2.0069    2.6836 H       1  UNL1        0.0620
     32 H           2.1302    2.4545    3.1871 H       1  UNL1        0.0617
     33 H           3.8160    0.8016    2.6457 H       1  UNL1        0.0606
     34 H           5.2681    1.0235    0.9036 H       1  UNL1        0.0669
     35 H           6.9850    2.1085   -0.7670 H       1  UNL1        0.0650
     36 H           7.3211    0.3624   -2.6525 H       1  UNL1        0.1030
     37 H           0.8490   -1.6733    1.1290 H       1  UNL1        0.0608
     38 H          -4.6893    0.2153    1.1444 H       1  UNL1        0.0314
     39 H          -3.5420   -1.0010    1.5860 H       1  UNL1        0.0314
     40 H          -5.3999   -2.1219    0.5332 H       1  UNL1        0.0268
     41 H          -4.0871   -2.1641   -0.6035 H       1  UNL1        0.0268
     42 H          -6.4258   -0.3268   -0.5405 H       1  UNL1        0.0269
     43 H          -5.9101   -1.4664   -1.8149 H       1  UNL1        0.0269
     44 H          -5.4093    1.2439   -1.6236 H       1  UNL1        0.0315
     45 H          -4.8480    0.0432   -2.8189 H       1  UNL1        0.0315
@<TRIPOS>UNITY_ATOM_ATTR
12 1
charge -1
@<TRIPOS>BOND
     1     1     2    2
     2     2     3   ar
     3     2    27   ar
     4     3     4   ar
     5     4     5   ar
     6     5     6    1
     7     5    22   ar
     8     6     7    1
     9     7     8   ar
    10     7    21   ar
    11     8     9   ar
    12     9    10   ar
    13    10    11   ar
    14    11    12    1
    15    11    21   ar
    16    12    13    1
    17    13    14    2
    18    13    15    2
    19    13    16    1
    20    16    17   ar
    21    16    20   ar
    22    17    18   ar
    23    18    19   ar
    24    19    20   ar
    25    22    23    1
    26    22    27   ar
    27    23    24    1
    28    24    25    1
    29    25    26    1
    30    26    27    1
    31     3    28    1
    32     6    29    1
    33     6    30    1
    34     8    31    1
    35     9    32    1
    36    10    33    1
    37    17    34    1
    38    18    35    1
    39    19    36    1
    40    21    37    1
    41    23    38    1
    42    23    39    1
    43    24    40    1
    44    24    41    1
    45    25    42    1
    46    25    43    1
    47    26    44    1
    48    26    45    1
@<TRIPOS>MOLECULE
../data/bude_mols_rdkit_confs_charged/molecule_86.pdb
 45 48 0 0 0
SMALL
GASTEIGER

@<TRIPOS>ATOM
      1  O1        -1.1470    3.4620   -2.2830 O.2     1  UNL1       -0.2661
      2  C1        -1.1040    2.6940   -1.2730 C.ar    1  UNL1        0.2682
      3  N1        -0.1950    2.9230   -0.3160 N.ar    1  UNL1       -0.2427
      4  N2        -0.0720    2.1910    0.7570 N.ar    1  UNL1       -0.1753
      5  C2        -0.9130    1.1320    0.9210 C.ar    1  UNL1        0.0693
      6  C3        -0.7320    0.3150    2.1210 C.3     1  UNL1        0.0167
      7  C4         0.0400   -0.9490    1.8880 C.ar    1  UNL1       -0.0427
      8  C5        -0.5740   -2.1740    1.8260 C.ar    1  UNL1       -0.0583
      9  C6         0.1810   -3.3320    1.5960 C.ar    1  UNL1       -0.0626
     10  C7         1.5470   -3.2430    1.4320 C.ar    1  UNL1       -0.0761
     11  C8         2.2030   -2.0200    1.4890 C.ar    1  UNL1       -0.1289
     12  N3         3.6020   -1.9080    1.3240 N.pl3   1  UNL1       -0.5341
     13  S1         4.4200   -1.6730   -0.1430 S.O2    1  UNL1       -0.0260
     14  O2         4.2800   -2.7840   -1.1070 O.2     1  UNL1       -0.1813
     15  O3         5.9020   -1.5340    0.1800 O.2     1  UNL1       -0.1813
     16  C9         3.9100   -0.1450   -0.8440 C.ar    1  UNL1        0.2249
     17  C10        3.3010   -0.0360   -2.0870 C.ar    1  UNL1        0.0008
     18  C11        3.0510    1.3140   -2.2890 C.ar    1  UNL1       -0.0220
     19  C12        3.5190    1.9490   -1.1640 C.ar    1  UNL1        0.0942
     20  O4         4.0140    1.0490   -0.3460 O.2     1  UNL1       -0.4472
     21  C13        1.4160   -0.9160    1.7170 C.ar    1  UNL1       -0.0726
     22  C14       -1.8730    0.8320   -0.0140 C.ar    1  UNL1       -0.0158
     23  C15       -2.7810   -0.3120    0.2100 C.3     1  UNL1       -0.0255
     24  C16       -4.1040    0.0370   -0.4760 C.3     1  UNL1       -0.0487
     25  C17       -3.8830    0.2730   -1.9390 C.3     1  UNL1       -0.0486
     26  C18       -2.9650    1.4110   -2.2280 C.3     1  UNL1       -0.0222
     27  C19       -1.9780    1.6310   -1.1490 C.ar    1  UNL1        0.0232
     28 H           0.4151    3.6874   -0.4288 H       1  UNL1        0.1921
     29 H          -1.6983    0.0541    2.4992 H       1  UNL1        0.0377
     30 H          -0.1635    0.9018    2.8119 H       1  UNL1        0.0377
     31 H          -1.5963   -2.2432    1.9492 H       1  UNL1        0.0620
     32 H          -0.2855   -4.2514    1.5494 H       1  UNL1        0.0617
     33 H           2.0931   -4.1023    1.2635 H       1  UNL1        0.0606
     34 H           3.0778   -0.8082   -2.7343 H       1  UNL1        0.0669
     35 H           2.6065    1.7499   -3.1121 H       1  UNL1        0.0650
     36 H           3.4868    2.9658   -0.9905 H       1  UNL1        0.1030
     37 H           1.8826    0.0033    1.7643 H       1  UNL1        0.0608
     38 H          -2.9367   -0.4597    1.2583 H       1  UNL1        0.0314
     39 H          -2.3677   -1.2155   -0.1872 H       1  UNL1        0.0314
     40 H          -4.5090    0.9226   -0.0326 H       1  UNL1        0.0268
     41 H          -4.7860   -0.7783   -0.3534 H       1  UNL1        0.0268
     42 H          -4.8290    0.4773   -2.3953 H       1  UNL1        0.0269
     43 H          -3.4229   -0.6090   -2.3331 H       1  UNL1        0.0269
     44 H          -3.5479    2.3005   -2.3463 H       1  UNL1        0.0315
     45 H          -2.4238    1.1735   -3.1200 H       1  UNL1        0.0315
@<TRIPOS>UNITY_ATOM_ATTR
12 1
charge -1
@<TRIPOS>BOND
     1     1     2    2
     2     2     3   ar
     3     2    27   ar
     4     3     4   ar
     5     4     5   ar
     6     5     6    1
     7     5    22   ar
     8     6     7    1
     9     7     8   ar
    10     7    21   ar
    11     8     9   ar
    12     9    10   ar
    13    10    11   ar
    14    11    12    1
    15    11    21   ar
    16    12    13    1
    17    13    14    2
    18    13    15    2
    19    13    16    1
    20    16    17   ar
    21    16    20   ar
    22    17    18   ar
    23    18    19   ar
    24    19    20   ar
    25    22    23    1
    26    22    27   ar
    27    23    24    1
    28    24    25    1
    29    25    26    1
    30    26    27    1
    31     3    28    1
    32     6    29    1
    33     6    30    1
    34     8    31    1
    35     9    32    1
    36    10    33    1
    37    17    34    1
    38    18    35    1
    39    19    36    1
    40    21    37    1
    41    23    38    1
    42    23    39    1
    43    24    40    1
    44    24    41    1
    45    25    42    1
    46    25    43    1
    47    26    44    1
    48    26    45    1
@<TRIPOS>MOLECULE
../data/bude_mols_rdkit_confs_charged/molecule_86.pdb
 45 48 0 0 0
SMALL
GASTEIGER

@<TRIPOS>ATOM
      1  O1        -4.3840    3.1650    1.4600 O.2     1  UNL1       -0.2661
      2  C1        -3.6690    2.4000    0.7530 C.ar    1  UNL1        0.2682
      3  N1        -2.6750    2.8860   -0.0260 N.ar    1  UNL1       -0.2427
      4  N2        -1.9140    2.1200   -0.7710 N.ar    1  UNL1       -0.1753
      5  C2        -2.0770    0.7670   -0.8100 C.ar    1  UNL1        0.0693
      6  C3        -1.1370   -0.0650   -1.6280 C.3     1  UNL1        0.0167
      7  C4        -0.0390   -0.5050   -0.7660 C.ar    1  UNL1       -0.0427
      8  C5         0.0450   -1.6650   -0.0460 C.ar    1  UNL1       -0.0583
      9  C6         1.1480   -1.9650    0.7330 C.ar    1  UNL1       -0.0626
     10  C7         2.2070   -1.0970    0.8080 C.ar    1  UNL1       -0.0761
     11  C8         2.1470    0.0750    0.0940 C.ar    1  UNL1       -0.1289
     12  N3         3.2150    1.0210    0.1190 N.pl3   1  UNL1       -0.5341
     13  S1         4.4990    0.9060   -1.0250 S.O2    1  UNL1       -0.0260
     14  O2         4.7580    2.2090   -1.7340 O.2     1  UNL1       -0.1813
     15  O3         4.1960   -0.1770   -2.0230 O.2     1  UNL1       -0.1813
     16  C9         5.9840    0.4860   -0.1510 C.ar    1  UNL1        0.2249
     17  C10        6.7440   -0.6450   -0.3460 C.ar    1  UNL1        0.0008
     18  C11        7.8070   -0.5900    0.5300 C.ar    1  UNL1       -0.0220
     19  C12        7.6360    0.5930    1.2270 C.ar    1  UNL1        0.0942
     20  O4         6.5550    1.1890    0.7930 O.2     1  UNL1       -0.4472
     21  C13        1.0490    0.3620   -0.6740 C.ar    1  UNL1       -0.0726
     22  C14       -3.0850    0.2530   -0.0260 C.ar    1  UNL1       -0.0158
     23  C15       -3.4050   -1.1810   -0.0220 C.3     1  UNL1       -0.0255
     24  C16       -4.9000   -1.3400   -0.2210 C.3     1  UNL1       -0.0487
     25  C17       -5.7470   -0.4520    0.6020 C.3     1  UNL1       -0.0486
     26  C18       -4.9530    0.4000    1.5900 C.3     1  UNL1       -0.0222
     27  C19       -3.9000    1.0520    0.7710 C.ar    1  UNL1        0.0232
     28 H          -2.5159    3.8575   -0.0340 H       1  UNL1        0.1921
     29 H          -0.7496    0.5179   -2.4374 H       1  UNL1        0.0377
     30 H          -1.6514   -0.9130   -2.0295 H       1  UNL1        0.0377
     31 H          -0.7378   -2.3363   -0.0851 H       1  UNL1        0.0620
     32 H           1.1742   -2.8503    1.2627 H       1  UNL1        0.0617
     33 H           3.0310   -1.3194    1.3882 H       1  UNL1        0.0606
     34 H           6.5526   -1.3980   -1.0252 H       1  UNL1        0.0669
     35 H           8.5654   -1.2809    0.6417 H       1  UNL1        0.0650
     36 H           8.2598    0.9477    1.9687 H       1  UNL1        0.1030
     37 H           1.0267    1.2487   -1.2015 H       1  UNL1        0.0608
     38 H          -3.1174   -1.6126    0.9139 H       1  UNL1        0.0314
     39 H          -2.8753   -1.6774   -0.8080 H       1  UNL1        0.0314
     40 H          -5.1583   -2.3518    0.0123 H       1  UNL1        0.0268
     41 H          -5.0922   -1.0707   -1.2386 H       1  UNL1        0.0268
     42 H          -6.4365   -1.0565    1.1534 H       1  UNL1        0.0269
     43 H          -6.2429    0.2200   -0.0669 H       1  UNL1        0.0269
     44 H          -4.5140   -0.2138    2.3486 H       1  UNL1        0.0315
     45 H          -5.5708    1.1133    2.0944 H       1  UNL1        0.0315
@<TRIPOS>UNITY_ATOM_ATTR
12 1
charge -1
@<TRIPOS>BOND
     1     1     2    2
     2     2     3   ar
     3     2    27   ar
     4     3     4   ar
     5     4     5   ar
     6     5     6    1
     7     5    22   ar
     8     6     7    1
     9     7     8   ar
    10     7    21   ar
    11     8     9   ar
    12     9    10   ar
    13    10    11   ar
    14    11    12    1
    15    11    21   ar
    16    12    13    1
    17    13    14    2
    18    13    15    2
    19    13    16    1
    20    16    17   ar
    21    16    20   ar
    22    17    18   ar
    23    18    19   ar
    24    19    20   ar
    25    22    23    1
    26    22    27   ar
    27    23    24    1
    28    24    25    1
    29    25    26    1
    30    26    27    1
    31     3    28    1
    32     6    29    1
    33     6    30    1
    34     8    31    1
    35     9    32    1
    36    10    33    1
    37    17    34    1
    38    18    35    1
    39    19    36    1
    40    21    37    1
    41    23    38    1
    42    23    39    1
    43    24    40    1
    44    24    41    1
    45    25    42    1
    46    25    43    1
    47    26    44    1
    48    26    45    1
@<TRIPOS>MOLECULE
../data/bude_mols_rdkit_confs_charged/molecule_86.pdb
 45 48 0 0 0
SMALL
GASTEIGER

@<TRIPOS>ATOM
      1  O1        -4.4680   -1.4970   -2.9200 O.2     1  UNL1       -0.2661
      2  C1        -3.6700   -1.1200   -2.0270 C.ar    1  UNL1        0.2682
      3  N1        -2.3840   -1.5010   -2.1200 N.ar    1  UNL1       -0.2427
      4  N2        -1.5420   -1.1060   -1.1810 N.ar    1  UNL1       -0.1753
      5  C2        -1.8920   -0.3410   -0.1340 C.ar    1  UNL1        0.0693
      6  C3        -0.8940    0.0820    0.9080 C.3     1  UNL1        0.0167
      7  C4         0.4060   -0.4860    0.5310 C.ar    1  UNL1       -0.0427
      8  C5         0.7790   -1.7380    0.9910 C.ar    1  UNL1       -0.0583
      9  C6         2.0140   -2.2230    0.6020 C.ar    1  UNL1       -0.0626
     10  C7         2.8690   -1.5000   -0.2190 C.ar    1  UNL1       -0.0761
     11  C8         2.4750   -0.2460   -0.6690 C.ar    1  UNL1       -0.1289
     12  N3         3.3490    0.4710   -1.4980 N.pl3   1  UNL1       -0.5341
     13  S1         4.5480    1.5650   -0.9130 S.O2    1  UNL1       -0.0260
     14  O2         5.2050    2.2640   -2.0450 O.2     1  UNL1       -0.1813
     15  O3         3.8480    2.5910   -0.0360 O.2     1  UNL1       -0.1813
     16  C9         5.7230    0.7620    0.1030 C.ar    1  UNL1        0.2249
     17  C10        6.0410    1.0030    1.4270 C.ar    1  UNL1        0.0008
     18  C11        7.0220    0.1200    1.7910 C.ar    1  UNL1       -0.0220
     19  C12        7.2720   -0.6400    0.6590 C.ar    1  UNL1        0.0942
     20  O4         6.4890   -0.2260   -0.2960 O.2     1  UNL1       -0.4472
     21  C13        1.2380    0.2510   -0.2860 C.ar    1  UNL1       -0.0726
     22  C14       -3.2320    0.0590   -0.0340 C.ar    1  UNL1       -0.0158
     23  C15       -3.5760    0.9010    1.1360 C.3     1  UNL1       -0.0255
     24  C16       -4.8730    1.5960    0.8910 C.3     1  UNL1       -0.0487
     25  C17       -5.9350    0.6400    0.3740 C.3     1  UNL1       -0.0486
     26  C18       -5.5750    0.0550   -0.9490 C.3     1  UNL1       -0.0222
     27  C19       -4.1450   -0.3270   -0.9850 C.ar    1  UNL1        0.0232
     28 H          -2.0770   -2.0607   -2.8695 H       1  UNL1        0.1921
     29 H          -1.1894   -0.2873    1.8678 H       1  UNL1        0.0377
     30 H          -0.8369    1.1490    0.9636 H       1  UNL1        0.0377
     31 H           0.1570   -2.2895    1.6026 H       1  UNL1        0.0620
     32 H           2.3105   -3.1543    0.9333 H       1  UNL1        0.0617
     33 H           3.7852   -1.8890   -0.4914 H       1  UNL1        0.0606
     34 H           5.6145    1.7211    2.0332 H       1  UNL1        0.0669
     35 H           7.4786    0.0377    2.7128 H       1  UNL1        0.0650
     36 H           7.9616   -1.4042    0.5854 H       1  UNL1        0.1030
     37 H           0.9370    1.1815   -0.6156 H       1  UNL1        0.0608
     38 H          -2.8062    1.6282    1.2896 H       1  UNL1        0.0314
     39 H          -3.6640    0.2822    2.0044 H       1  UNL1        0.0314
     40 H          -4.7206    2.3691    0.1671 H       1  UNL1        0.0268
     41 H          -5.2142    2.0021    1.8203 H       1  UNL1        0.0268
     42 H          -6.8580    1.1722    0.2751 H       1  UNL1        0.0269
     43 H          -6.0202   -0.1641    1.0748 H       1  UNL1        0.0269
     44 H          -5.7641    0.7777   -1.7150 H       1  UNL1        0.0315
     45 H          -6.1676   -0.8215   -1.1084 H       1  UNL1        0.0315
@<TRIPOS>UNITY_ATOM_ATTR
12 1
charge -1
@<TRIPOS>BOND
     1     1     2    2
     2     2     3   ar
     3     2    27   ar
     4     3     4   ar
     5     4     5   ar
     6     5     6    1
     7     5    22   ar
     8     6     7    1
     9     7     8   ar
    10     7    21   ar
    11     8     9   ar
    12     9    10   ar
    13    10    11   ar
    14    11    12    1
    15    11    21   ar
    16    12    13    1
    17    13    14    2
    18    13    15    2
    19    13    16    1
    20    16    17   ar
    21    16    20   ar
    22    17    18   ar
    23    18    19   ar
    24    19    20   ar
    25    22    23    1
    26    22    27   ar
    27    23    24    1
    28    24    25    1
    29    25    26    1
    30    26    27    1
    31     3    28    1
    32     6    29    1
    33     6    30    1
    34     8    31    1
    35     9    32    1
    36    10    33    1
    37    17    34    1
    38    18    35    1
    39    19    36    1
    40    21    37    1
    41    23    38    1
    42    23    39    1
    43    24    40    1
    44    24    41    1
    45    25    42    1
    46    25    43    1
    47    26    44    1
    48    26    45    1
@<TRIPOS>MOLECULE
../data/bude_mols_rdkit_confs_charged/molecule_86.pdb
 45 48 0 0 0
SMALL
GASTEIGER

@<TRIPOS>ATOM
      1  O1        -4.1670   -0.1840    3.5140 O.2     1  UNL1       -0.2661
      2  C1        -3.3130    0.0880    2.6350 C.ar    1  UNL1        0.2682
      3  N1        -2.0380    0.2740    3.0070 N.ar    1  UNL1       -0.2427
      4  N2        -1.1120    0.5590    2.1150 N.ar    1  UNL1       -0.1753
      5  C2        -1.4050    0.6760    0.7760 C.ar    1  UNL1        0.0693
      6  C3        -0.2980    0.8940   -0.1670 C.3     1  UNL1        0.0167
      7  C4         0.4630   -0.2870   -0.5650 C.ar    1  UNL1       -0.0427
      8  C5         0.2190   -1.0280   -1.6700 C.ar    1  UNL1       -0.0583
      9  C6         0.9750   -2.1660   -2.0100 C.ar    1  UNL1       -0.0626
     10  C7         1.9970   -2.5370   -1.1940 C.ar    1  UNL1       -0.0761
     11  C8         2.2950   -1.8320   -0.0690 C.ar    1  UNL1       -0.1289
     12  N3         3.3800   -2.1990    0.7390 N.pl3   1  UNL1       -0.5341
     13  S1         5.0030   -1.7210    0.5340 S.O2    1  UNL1       -0.0260
     14  O2         5.6190   -2.2040   -0.7520 O.2     1  UNL1       -0.1813
     15  O3         5.8130   -2.3650    1.6560 O.2     1  UNL1       -0.1813
     16  C9         5.2300   -0.0000    0.6350 C.ar    1  UNL1        0.2249
     17  C10        5.7580    0.8320   -0.3530 C.ar    1  UNL1        0.0008
     18  C11        5.7520    2.1080    0.1500 C.ar    1  UNL1       -0.0220
     19  C12        5.2330    2.0350    1.4050 C.ar    1  UNL1        0.0942
     20  O4         4.9410    0.7600    1.6390 O.2     1  UNL1       -0.4472
     21  C13        1.5400   -0.7290    0.2360 C.ar    1  UNL1       -0.0726
     22  C14       -2.7230    0.4890    0.3740 C.ar    1  UNL1       -0.0158
     23  C15       -3.0020    0.7220   -1.0640 C.3     1  UNL1       -0.0255
     24  C16       -4.4400    0.3980   -1.3670 C.3     1  UNL1       -0.0487
     25  C17       -5.4040    0.8300   -0.2940 C.3     1  UNL1       -0.0486
     26  C18       -5.1490   -0.0290    0.9500 C.3     1  UNL1       -0.0222
     27  C19       -3.7020    0.1890    1.3000 C.ar    1  UNL1        0.0232
     28 H          -1.7917    0.1967    3.9570 H       1  UNL1        0.1921
     29 H           0.3842    1.5823    0.2866 H       1  UNL1        0.0377
     30 H          -0.7580    1.2496   -1.0653 H       1  UNL1        0.0377
     31 H          -0.5555   -0.7468   -2.2913 H       1  UNL1        0.0620
     32 H           0.7577   -2.7074   -2.8613 H       1  UNL1        0.0617
     33 H           2.5579   -3.3698   -1.4325 H       1  UNL1        0.0606
     34 H           6.0903    0.5420   -1.2860 H       1  UNL1        0.0669
     35 H           6.0787    2.9603   -0.3316 H       1  UNL1        0.0650
     36 H           5.0920    2.8239    2.0552 H       1  UNL1        0.1030
     37 H           1.7688   -0.1969    1.0901 H       1  UNL1        0.0608
     38 H          -2.3656    0.0966   -1.6545 H       1  UNL1        0.0314
     39 H          -2.8165    1.7499   -1.2963 H       1  UNL1        0.0314
     40 H          -4.5273   -0.6612   -1.4913 H       1  UNL1        0.0268
     41 H          -4.6995    0.9394   -2.2527 H       1  UNL1        0.0268
     42 H          -6.4095    0.6894   -0.6319 H       1  UNL1        0.0269
     43 H          -5.2631    1.8655   -0.0644 H       1  UNL1        0.0269
     44 H          -5.3302   -1.0614    0.7350 H       1  UNL1        0.0315
     45 H          -5.7974    0.2399    1.7576 H       1  UNL1        0.0315
@<TRIPOS>UNITY_ATOM_ATTR
12 1
charge -1
@<TRIPOS>BOND
     1     1     2    2
     2     2     3   ar
     3     2    27   ar
     4     3     4   ar
     5     4     5   ar
     6     5     6    1
     7     5    22   ar
     8     6     7    1
     9     7     8   ar
    10     7    21   ar
    11     8     9   ar
    12     9    10   ar
    13    10    11   ar
    14    11    12    1
    15    11    21   ar
    16    12    13    1
    17    13    14    2
    18    13    15    2
    19    13    16    1
    20    16    17   ar
    21    16    20   ar
    22    17    18   ar
    23    18    19   ar
    24    19    20   ar
    25    22    23    1
    26    22    27   ar
    27    23    24    1
    28    24    25    1
    29    25    26    1
    30    26    27    1
    31     3    28    1
    32     6    29    1
    33     6    30    1
    34     8    31    1
    35     9    32    1
    36    10    33    1
    37    17    34    1
    38    18    35    1
    39    19    36    1
    40    21    37    1
    41    23    38    1
    42    23    39    1
    43    24    40    1
    44    24    41    1
    45    25    42    1
    46    25    43    1
    47    26    44    1
    48    26    45    1
