@<TRIPOS>MOLECULE
../data/bude_mols_rdkit_confs_charged/molecule_81.pdb
 46 49 0 0 0
SMALL
GASTEIGER

@<TRIPOS>ATOM
      1  O1         4.6250   -2.7010    0.0150 O.co2   1  UNL1       -0.5446
      2  C1         5.1380   -1.8720   -0.7580 C.2     1  UNL1        0.0724
      3  O2         5.4530   -2.3170   -2.0440 O.co2   1  UNL1       -0.5446
      4  C2         5.3890   -0.5190   -0.3350 C.ar    1  UNL1        0.0094
      5  C3         6.4820   -0.2320    0.4900 C.ar    1  UNL1       -0.0522
      6  C4         6.7810    1.0700    0.8140 C.ar    1  UNL1       -0.0611
      7  C5         6.0090    2.0920    0.3000 C.ar    1  UNL1       -0.0610
      8  C6         4.9140    1.8290   -0.5360 C.ar    1  UNL1       -0.0490
      9  C7         4.6310    0.5070   -0.8180 C.ar    1  UNL1        0.0458
     10  C8         3.2060    0.1980   -1.1980 C.2     1  UNL1        0.2489
     11  O3         2.6990    0.1340   -2.2630 O.2     1  UNL1       -0.2698
     12  N1         2.4660   -0.0230    0.0400 N.am    1  UNL1       -0.2815
     13  C9         1.1100   -0.3250    0.1280 C.ar    1  UNL1        0.0339
     14  C10        0.7300   -1.4880    0.7860 C.ar    1  UNL1       -0.0405
     15  C11       -0.6060   -1.7880    0.8270 C.ar    1  UNL1       -0.0597
     16  C12       -1.5640   -0.9380    0.2340 C.ar    1  UNL1       -0.0581
     17  C13       -1.2040    0.1980   -0.4160 C.ar    1  UNL1       -0.0398
     18  C14       -2.1970    1.0480   -1.2420 C.3     1  UNL1        0.0172
     19  C15       -3.3750    1.3470   -0.3280 C.ar    1  UNL1        0.0736
     20  N2        -3.2370    2.3600    0.5120 N.ar    1  UNL1       -0.1750
     21  N3        -3.9480    2.3520    1.6650 N.ar    1  UNL1       -0.2425
     22  C16       -4.7510    1.3070    1.9320 C.ar    1  UNL1        0.2725
     23  O4        -5.3690    1.3300    3.0340 O.2     1  UNL1       -0.2658
     24  C17       -4.9110    0.2220    1.0970 C.ar    1  UNL1        0.0496
     25  C18       -5.7640   -0.8410    1.3660 C.ar    1  UNL1       -0.0487
     26  C19       -5.9030   -1.8100    0.4030 C.ar    1  UNL1       -0.0610
     27  C20       -5.1970   -1.7270   -0.7880 C.ar    1  UNL1       -0.0611
     28  C21       -4.3270   -0.6770   -1.0360 C.ar    1  UNL1       -0.0521
     29  C22       -4.2020    0.2750   -0.0790 C.ar    1  UNL1        0.0106
     30  C23        0.1650    0.4870   -0.4570 C.ar    1  UNL1       -0.0369
     31 H           7.0656   -1.0002    0.8564 H       1  UNL1        0.0624
     32 H           7.5764    1.2816    1.4366 H       1  UNL1        0.0618
     33 H           6.2421    3.0694    0.5355 H       1  UNL1        0.0618
     34 H           4.3416    2.5942   -0.9256 H       1  UNL1        0.0625
     35 H           2.9679    0.0474    0.8840 H       1  UNL1        0.1551
     36 H           1.4296   -2.1043    1.2284 H       1  UNL1        0.0636
     37 H          -0.9175   -2.6508    1.2999 H       1  UNL1        0.0618
     38 H          -2.5637   -1.1865    0.2961 H       1  UNL1        0.0620
     39 H          -2.5254    0.5015   -2.1013 H       1  UNL1        0.0377
     40 H          -1.7381    1.9502   -1.5889 H       1  UNL1        0.0377
     41 H          -3.8777    3.1016    2.2993 H       1  UNL1        0.1921
     42 H          -6.2762   -0.9005    2.2599 H       1  UNL1        0.0625
     43 H          -6.5381   -2.6067    0.5668 H       1  UNL1        0.0618
     44 H          -5.3218   -2.4608   -1.5028 H       1  UNL1        0.0618
     45 H          -3.7934   -0.6219   -1.9176 H       1  UNL1        0.0624
     46 H           0.4777    1.3413   -0.9443 H       1  UNL1        0.0639
@<TRIPOS>UNITY_ATOM_ATTR
3 1
charge -1
@<TRIPOS>BOND
     1     1     2   ar
     2     2     3   ar
     3     2     4    1
     4     4     5   ar
     5     4     9   ar
     6     5     6   ar
     7     6     7   ar
     8     7     8   ar
     9     8     9   ar
    10     9    10    1
    11    10    11    2
    12    10    12   am
    13    12    13    1
    14    13    14   ar
    15    13    30   ar
    16    14    15   ar
    17    15    16   ar
    18    16    17   ar
    19    17    18    1
    20    17    30   ar
    21    18    19    1
    22    19    20   ar
    23    19    29   ar
    24    20    21   ar
    25    21    22   ar
    26    22    23    2
    27    22    24   ar
    28    24    25   ar
    29    24    29   ar
    30    25    26   ar
    31    26    27   ar
    32    27    28   ar
    33    28    29   ar
    34     5    31    1
    35     6    32    1
    36     7    33    1
    37     8    34    1
    38    12    35    1
    39    14    36    1
    40    15    37    1
    41    16    38    1
    42    18    39    1
    43    18    40    1
    44    21    41    1
    45    25    42    1
    46    26    43    1
    47    27    44    1
    48    28    45    1
    49    30    46    1
@<TRIPOS>MOLECULE
../data/bude_mols_rdkit_confs_charged/molecule_81.pdb
 46 49 0 0 0
SMALL
GASTEIGER

@<TRIPOS>ATOM
      1  O1         4.7280   -3.0180    1.3390 O.co2   1  UNL1       -0.5446
      2  C1         5.7130   -2.4820    0.7780 C.2     1  UNL1        0.0724
      3  O2         6.8270   -3.2580    0.5270 O.co2   1  UNL1       -0.5446
      4  C2         5.7040   -1.0550    0.3810 C.ar    1  UNL1        0.0094
      5  C3         6.8910   -0.3950    0.0610 C.ar    1  UNL1       -0.0522
      6  C4         6.9070    0.9150   -0.3230 C.ar    1  UNL1       -0.0611
      7  C5         5.7390    1.6330   -0.4200 C.ar    1  UNL1       -0.0610
      8  C6         4.6090    0.9930   -0.0920 C.ar    1  UNL1       -0.0490
      9  C7         4.5850   -0.4200    0.3220 C.ar    1  UNL1        0.0458
     10  C8         3.1680   -0.7060    0.3440 C.2     1  UNL1        0.2489
     11  O3         2.4870   -0.4270    1.3350 O.2     1  UNL1       -0.2698
     12  N1         2.5230   -1.2680   -0.8400 N.am    1  UNL1       -0.2815
     13  C9         1.0750   -0.9800   -0.8360 C.ar    1  UNL1        0.0339
     14  C10        0.9460    0.0780   -1.7670 C.ar    1  UNL1       -0.0405
     15  C11       -0.0710    0.9570   -1.6850 C.ar    1  UNL1       -0.0597
     16  C12       -0.9870    0.7710   -0.7150 C.ar    1  UNL1       -0.0581
     17  C13       -0.8850   -0.2570    0.1590 C.ar    1  UNL1       -0.0398
     18  C14       -2.0030   -0.4430    1.1660 C.3     1  UNL1        0.0172
     19  C15       -3.2280   -0.5410    0.2960 C.ar    1  UNL1        0.0736
     20  N2        -3.1910   -1.3990   -0.7700 N.ar    1  UNL1       -0.1750
     21  N3        -4.1990   -1.4680   -1.6260 N.ar    1  UNL1       -0.2425
     22  C16       -5.3070   -0.7010   -1.4910 C.ar    1  UNL1        0.2725
     23  O4        -6.2570   -0.7780   -2.3170 O.2     1  UNL1       -0.2658
     24  C17       -5.3630    0.1500   -0.4360 C.ar    1  UNL1        0.0496
     25  C18       -6.4560    0.9960   -0.2600 C.ar    1  UNL1       -0.0487
     26  C19       -6.4690    1.9340    0.8100 C.ar    1  UNL1       -0.0610
     27  C20       -5.3800    2.0000    1.7040 C.ar    1  UNL1       -0.0611
     28  C21       -4.3530    1.1300    1.4970 C.ar    1  UNL1       -0.0521
     29  C22       -4.3230    0.2360    0.4660 C.ar    1  UNL1        0.0106
     30  C23        0.2030   -1.1960    0.1400 C.ar    1  UNL1       -0.0369
     31 H           7.7825   -0.9120    0.1162 H       1  UNL1        0.0624
     32 H           7.8062    1.3713   -0.5429 H       1  UNL1        0.0618
     33 H           5.7330    2.6172   -0.7304 H       1  UNL1        0.0618
     34 H           3.7178    1.5119   -0.1311 H       1  UNL1        0.0625
     35 H           2.9907   -1.7709   -1.5454 H       1  UNL1        0.1551
     36 H           1.6430    0.1776   -2.5215 H       1  UNL1        0.0636
     37 H          -0.1461    1.7476   -2.3440 H       1  UNL1        0.0618
     38 H          -1.7816    1.4249   -0.6370 H       1  UNL1        0.0620
     39 H          -2.0675    0.3948    1.8284 H       1  UNL1        0.0377
     40 H          -1.8646   -1.2955    1.7977 H       1  UNL1        0.0377
     41 H          -4.1413   -2.0952   -2.3827 H       1  UNL1        0.1921
     42 H          -7.2580    0.9422   -0.9072 H       1  UNL1        0.0625
     43 H          -7.2755    2.5662    0.9319 H       1  UNL1        0.0618
     44 H          -5.3623    2.6784    2.4815 H       1  UNL1        0.0618
     45 H          -3.5567    1.1475    2.1532 H       1  UNL1        0.0624
     46 H           0.2969   -1.9655    0.8212 H       1  UNL1        0.0639
@<TRIPOS>UNITY_ATOM_ATTR
3 1
charge -1
@<TRIPOS>BOND
     1     1     2   ar
     2     2     3   ar
     3     2     4    1
     4     4     5   ar
     5     4     9   ar
     6     5     6   ar
     7     6     7   ar
     8     7     8   ar
     9     8     9   ar
    10     9    10    1
    11    10    11    2
    12    10    12   am
    13    12    13    1
    14    13    14   ar
    15    13    30   ar
    16    14    15   ar
    17    15    16   ar
    18    16    17   ar
    19    17    18    1
    20    17    30   ar
    21    18    19    1
    22    19    20   ar
    23    19    29   ar
    24    20    21   ar
    25    21    22   ar
    26    22    23    2
    27    22    24   ar
    28    24    25   ar
    29    24    29   ar
    30    25    26   ar
    31    26    27   ar
    32    27    28   ar
    33    28    29   ar
    34     5    31    1
    35     6    32    1
    36     7    33    1
    37     8    34    1
    38    12    35    1
    39    14    36    1
    40    15    37    1
    41    16    38    1
    42    18    39    1
    43    18    40    1
    44    21    41    1
    45    25    42    1
    46    26    43    1
    47    27    44    1
    48    28    45    1
    49    30    46    1
@<TRIPOS>MOLECULE
../data/bude_mols_rdkit_confs_charged/molecule_81.pdb
 46 49 0 0 0
SMALL
GASTEIGER

@<TRIPOS>ATOM
      1  O1         6.3630    0.4340   -3.0050 O.co2   1  UNL1       -0.5446
      2  C1         6.1680   -0.1510   -1.8830 C.2     1  UNL1        0.0724
      3  O2         6.1450   -1.5840   -1.8590 O.co2   1  UNL1       -0.5446
      4  C2         5.9300    0.5820   -0.6520 C.ar    1  UNL1        0.0094
      5  C3         7.0400    1.3290   -0.2020 C.ar    1  UNL1       -0.0522
      6  C4         6.9680    2.1400    0.9190 C.ar    1  UNL1       -0.0611
      7  C5         5.7790    2.2230    1.5930 C.ar    1  UNL1       -0.0610
      8  C6         4.7360    1.4800    1.1470 C.ar    1  UNL1       -0.0490
      9  C7         4.7750    0.6390    0.0220 C.ar    1  UNL1        0.0458
     10  C8         3.6040   -0.2480   -0.1400 C.2     1  UNL1        0.2489
     11  O3         3.7230   -1.4680   -0.4740 O.2     1  UNL1       -0.2698
     12  N1         2.3090    0.2590    0.1430 N.am    1  UNL1       -0.2815
     13  C9         1.2140   -0.7010    0.2080 C.ar    1  UNL1        0.0339
     14  C10        1.5300   -1.9510    0.8500 C.ar    1  UNL1       -0.0405
     15  C11        0.5680   -2.8650    1.0450 C.ar    1  UNL1       -0.0597
     16  C12       -0.7240   -2.6430    0.6720 C.ar    1  UNL1       -0.0581
     17  C13       -1.1140   -1.4380    0.0410 C.ar    1  UNL1       -0.0398
     18  C14       -2.5260   -1.2940   -0.2340 C.3     1  UNL1        0.0172
     19  C15       -3.2140   -0.0160    0.0890 C.ar    1  UNL1        0.0736
     20  N2        -2.6680    1.1190    0.4870 N.ar    1  UNL1       -0.1750
     21  N3        -3.3850    2.2380    0.6270 N.ar    1  UNL1       -0.2425
     22  C16       -4.7160    2.1980    0.3580 C.ar    1  UNL1        0.2725
     23  O4        -5.3410    3.2780    0.4870 O.2     1  UNL1       -0.2658
     24  C17       -5.3650    1.0480   -0.0560 C.ar    1  UNL1        0.0496
     25  C18       -6.7430    1.0500   -0.2900 C.ar    1  UNL1       -0.0487
     26  C19       -7.3560   -0.1400   -0.6700 C.ar    1  UNL1       -0.0610
     27  C20       -6.6120   -1.2960   -0.8050 C.ar    1  UNL1       -0.0611
     28  C21       -5.2340   -1.2440   -0.5590 C.ar    1  UNL1       -0.0521
     29  C22       -4.5990   -0.0720   -0.1900 C.ar    1  UNL1        0.0106
     30  C23       -0.0600   -0.5190   -0.1510 C.ar    1  UNL1       -0.0369
     31 H           7.9293    1.2694   -0.7222 H       1  UNL1        0.0624
     32 H           7.7933    2.6704    1.2393 H       1  UNL1        0.0618
     33 H           5.6793    2.8346    2.4183 H       1  UNL1        0.0618
     34 H           3.8492    1.5363    1.6719 H       1  UNL1        0.0625
     35 H           2.1563    1.2205    0.2895 H       1  UNL1        0.1551
     36 H           2.4955   -2.1431    1.1596 H       1  UNL1        0.0636
     37 H           0.8133   -3.7629    1.4906 H       1  UNL1        0.0618
     38 H          -1.4336   -3.3699    0.8538 H       1  UNL1        0.0620
     39 H          -3.0286   -2.0637    0.3136 H       1  UNL1        0.0377
     40 H          -2.5774   -1.3411   -1.3017 H       1  UNL1        0.0377
     41 H          -2.9570    3.0750    0.9194 H       1  UNL1        0.1921
     42 H          -7.2942    1.9159   -0.1832 H       1  UNL1        0.0625
     43 H          -8.3717   -0.1590   -0.8519 H       1  UNL1        0.0618
     44 H          -7.0632   -2.1818   -1.0821 H       1  UNL1        0.0618
     45 H          -4.6756   -2.1064   -0.6560 H       1  UNL1        0.0624
     46 H          -0.2948    0.3748   -0.6105 H       1  UNL1        0.0639
@<TRIPOS>UNITY_ATOM_ATTR
3 1
charge -1
@<TRIPOS>BOND
     1     1     2   ar
     2     2     3   ar
     3     2     4    1
     4     4     5   ar
     5     4     9   ar
     6     5     6   ar
     7     6     7   ar
     8     7     8   ar
     9     8     9   ar
    10     9    10    1
    11    10    11    2
    12    10    12   am
    13    12    13    1
    14    13    14   ar
    15    13    30   ar
    16    14    15   ar
    17    15    16   ar
    18    16    17   ar
    19    17    18    1
    20    17    30   ar
    21    18    19    1
    22    19    20   ar
    23    19    29   ar
    24    20    21   ar
    25    21    22   ar
    26    22    23    2
    27    22    24   ar
    28    24    25   ar
    29    24    29   ar
    30    25    26   ar
    31    26    27   ar
    32    27    28   ar
    33    28    29   ar
    34     5    31    1
    35     6    32    1
    36     7    33    1
    37     8    34    1
    38    12    35    1
    39    14    36    1
    40    15    37    1
    41    16    38    1
    42    18    39    1
    43    18    40    1
    44    21    41    1
    45    25    42    1
    46    26    43    1
    47    27    44    1
    48    28    45    1
    49    30    46    1
@<TRIPOS>MOLECULE
../data/bude_mols_rdkit_confs_charged/molecule_81.pdb
 46 49 0 0 0
SMALL
GASTEIGER

@<TRIPOS>ATOM
      1  O1         4.5370   -0.5850   -2.3900 O.co2   1  UNL1       -0.5446
      2  C1         4.8910    0.5390   -1.8390 C.2     1  UNL1        0.0724
      3  O2         4.4420    1.7170   -2.3700 O.co2   1  UNL1       -0.5446
      4  C2         5.6300    0.3930   -0.5860 C.ar    1  UNL1        0.0094
      5  C3         6.9820    0.5100   -0.6680 C.ar    1  UNL1       -0.0522
      6  C4         7.7260    0.1500    0.4180 C.ar    1  UNL1       -0.0611
      7  C5         7.1020   -0.3320    1.5560 C.ar    1  UNL1       -0.0610
      8  C6         5.7070   -0.4170    1.6560 C.ar    1  UNL1       -0.0490
      9  C7         4.9850   -0.0370    0.6250 C.ar    1  UNL1        0.0458
     10  C8         3.5820    0.2130    0.4950 C.2     1  UNL1        0.2489
     11  O3         3.2370    1.4030    0.8040 O.2     1  UNL1       -0.2698
     12  N1         2.6530   -0.6860   -0.0410 N.am    1  UNL1       -0.2815
     13  C9         1.3360   -0.2420   -0.4020 C.ar    1  UNL1        0.0339
     14  C10        1.3270    0.7390   -1.4120 C.ar    1  UNL1       -0.0405
     15  C11        0.1380    1.1810   -1.9620 C.ar    1  UNL1       -0.0597
     16  C12       -1.0960    0.6470   -1.4670 C.ar    1  UNL1       -0.0581
     17  C13       -1.0650   -0.3040   -0.4620 C.ar    1  UNL1       -0.0398
     18  C14       -2.1730   -0.5630    0.5190 C.3     1  UNL1        0.0172
     19  C15       -3.4780   -0.9960    0.2090 C.ar    1  UNL1        0.0736
     20  N2        -3.6860   -2.1370   -0.5050 N.ar    1  UNL1       -0.1750
     21  N3        -4.8250   -2.4770   -1.0200 N.ar    1  UNL1       -0.2425
     22  C16       -5.9540   -1.7360   -0.8930 C.ar    1  UNL1        0.2725
     23  O4        -7.0340   -2.0760   -1.3710 O.2     1  UNL1       -0.2658
     24  C17       -5.8410   -0.5690   -0.1430 C.ar    1  UNL1        0.0496
     25  C18       -6.9210    0.2460    0.1190 C.ar    1  UNL1       -0.0487
     26  C19       -6.8330    1.3960    0.9070 C.ar    1  UNL1       -0.0610
     27  C20       -5.5910    1.6860    1.4380 C.ar    1  UNL1       -0.0611
     28  C21       -4.5080    0.9040    1.1830 C.ar    1  UNL1       -0.0521
     29  C22       -4.5850   -0.2150    0.4040 C.ar    1  UNL1        0.0106
     30  C23        0.1870   -0.7270    0.0370 C.ar    1  UNL1       -0.0369
     31 H           7.4330    0.8612   -1.5273 H       1  UNL1        0.0624
     32 H           8.7540    0.2371    0.3909 H       1  UNL1        0.0618
     33 H           7.6811   -0.6375    2.3537 H       1  UNL1        0.0618
     34 H           5.2581   -0.7686    2.5162 H       1  UNL1        0.0625
     35 H           2.9041   -1.6290   -0.1714 H       1  UNL1        0.1551
     36 H           2.2201    1.1335   -1.7463 H       1  UNL1        0.0636
     37 H           0.1393    1.8844   -2.7171 H       1  UNL1        0.0618
     38 H          -1.9969    0.9676   -1.8551 H       1  UNL1        0.0620
     39 H          -2.3027    0.3606    1.0435 H       1  UNL1        0.0377
     40 H          -1.7961   -1.4495    0.9848 H       1  UNL1        0.0377
     41 H          -4.8737   -3.3174   -1.5304 H       1  UNL1        0.1921
     42 H          -7.8367   -0.0048   -0.2855 H       1  UNL1        0.0625
     43 H          -7.6528    1.9975    1.0833 H       1  UNL1        0.0618
     44 H          -5.4825    2.5155    2.0423 H       1  UNL1        0.0618
     45 H          -3.5972    1.1650    1.5920 H       1  UNL1        0.0624
     46 H           0.2057   -1.4463    0.7768 H       1  UNL1        0.0639
@<TRIPOS>UNITY_ATOM_ATTR
3 1
charge -1
@<TRIPOS>BOND
     1     1     2   ar
     2     2     3   ar
     3     2     4    1
     4     4     5   ar
     5     4     9   ar
     6     5     6   ar
     7     6     7   ar
     8     7     8   ar
     9     8     9   ar
    10     9    10    1
    11    10    11    2
    12    10    12   am
    13    12    13    1
    14    13    14   ar
    15    13    30   ar
    16    14    15   ar
    17    15    16   ar
    18    16    17   ar
    19    17    18    1
    20    17    30   ar
    21    18    19    1
    22    19    20   ar
    23    19    29   ar
    24    20    21   ar
    25    21    22   ar
    26    22    23    2
    27    22    24   ar
    28    24    25   ar
    29    24    29   ar
    30    25    26   ar
    31    26    27   ar
    32    27    28   ar
    33    28    29   ar
    34     5    31    1
    35     6    32    1
    36     7    33    1
    37     8    34    1
    38    12    35    1
    39    14    36    1
    40    15    37    1
    41    16    38    1
    42    18    39    1
    43    18    40    1
    44    21    41    1
    45    25    42    1
    46    26    43    1
    47    27    44    1
    48    28    45    1
    49    30    46    1
@<TRIPOS>MOLECULE
../data/bude_mols_rdkit_confs_charged/molecule_81.pdb
 46 49 0 0 0
SMALL
GASTEIGER

@<TRIPOS>ATOM
      1  O1         5.9980    2.4590   -0.8220 O.co2   1  UNL1       -0.5446
      2  C1         5.3210    1.7110   -0.0580 C.2     1  UNL1        0.0724
      3  O2         4.2120    2.2490    0.5900 O.co2   1  UNL1       -0.5446
      4  C2         5.7020    0.2900    0.1450 C.ar    1  UNL1        0.0094
      5  C3         6.9000    0.0020    0.7400 C.ar    1  UNL1       -0.0522
      6  C4         7.3150   -1.3180    0.8970 C.ar    1  UNL1       -0.0611
      7  C5         6.5010   -2.3350    0.4530 C.ar    1  UNL1       -0.0610
      8  C6         5.2810   -2.0440   -0.1510 C.ar    1  UNL1       -0.0490
      9  C7         4.8900   -0.7710   -0.3000 C.ar    1  UNL1        0.0458
     10  C8         3.5760   -0.3380   -0.8920 C.2     1  UNL1        0.2489
     11  O3         3.5240   -0.1990   -2.1200 O.2     1  UNL1       -0.2698
     12  N1         2.4650   -0.0860   -0.0760 N.am    1  UNL1       -0.2815
     13  C9         1.1800    0.4160   -0.5080 C.ar    1  UNL1        0.0339
     14  C10        1.0100    1.0560   -1.7040 C.ar    1  UNL1       -0.0405
     15  C11       -0.2480    1.6320   -1.9800 C.ar    1  UNL1       -0.0597
     16  C12       -1.2950    1.5760   -1.0800 C.ar    1  UNL1       -0.0581
     17  C13       -1.1350    0.9320    0.1150 C.ar    1  UNL1       -0.0398
     18  C14       -2.1780    0.8750    1.1930 C.3     1  UNL1        0.0172
     19  C15       -3.2450   -0.0720    1.0880 C.ar    1  UNL1        0.0736
     20  N2        -3.0430   -1.3030    1.6880 N.ar    1  UNL1       -0.1750
     21  N3        -3.9380   -2.2770    1.6210 N.ar    1  UNL1       -0.2425
     22  C16       -5.0960   -2.1590    0.9750 C.ar    1  UNL1        0.2725
     23  O4        -5.9130   -3.0950    0.9110 O.2     1  UNL1       -0.2658
     24  C17       -5.3860   -0.9680    0.3460 C.ar    1  UNL1        0.0496
     25  C18       -6.6070   -0.7570   -0.3340 C.ar    1  UNL1       -0.0487
     26  C19       -6.8640    0.4450   -0.9130 C.ar    1  UNL1       -0.0610
     27  C20       -5.9020    1.4530   -0.8230 C.ar    1  UNL1       -0.0611
     28  C21       -4.7260    1.2810   -0.1770 C.ar    1  UNL1       -0.0521
     29  C22       -4.4360    0.0690    0.4230 C.ar    1  UNL1        0.0106
     30  C23        0.1260    0.3650    0.3740 C.ar    1  UNL1       -0.0369
     31 H           7.5018    0.7703    1.0756 H       1  UNL1        0.0624
     32 H           8.2220   -1.5310    1.3409 H       1  UNL1        0.0618
     33 H           6.7962   -3.3171    0.5683 H       1  UNL1        0.0618
     34 H           4.6762   -2.8106   -0.4849 H       1  UNL1        0.0625
     35 H           2.5698   -0.2687    0.8857 H       1  UNL1        0.1551
     36 H           1.7814    1.1162   -2.3869 H       1  UNL1        0.0636
     37 H          -0.3908    2.1105   -2.8831 H       1  UNL1        0.0618
     38 H          -2.1976    2.0203   -1.3100 H       1  UNL1        0.0620
     39 H          -2.6262    1.8452    1.2447 H       1  UNL1        0.0377
     40 H          -1.6336    0.5475    2.0540 H       1  UNL1        0.0377
     41 H          -3.7372   -3.1295    2.0707 H       1  UNL1        0.1921
     42 H          -7.3036   -1.5163   -0.3907 H       1  UNL1        0.0625
     43 H          -7.7534    0.6098   -1.4099 H       1  UNL1        0.0618
     44 H          -6.0956    2.3645   -1.2665 H       1  UNL1        0.0618
     45 H          -4.0446    2.0548   -0.1318 H       1  UNL1        0.0624
     46 H           0.2681   -0.1160    1.2759 H       1  UNL1        0.0639
@<TRIPOS>UNITY_ATOM_ATTR
3 1
charge -1
@<TRIPOS>BOND
     1     1     2   ar
     2     2     3   ar
     3     2     4    1
     4     4     5   ar
     5     4     9   ar
     6     5     6   ar
     7     6     7   ar
     8     7     8   ar
     9     8     9   ar
    10     9    10    1
    11    10    11    2
    12    10    12   am
    13    12    13    1
    14    13    14   ar
    15    13    30   ar
    16    14    15   ar
    17    15    16   ar
    18    16    17   ar
    19    17    18    1
    20    17    30   ar
    21    18    19    1
    22    19    20   ar
    23    19    29   ar
    24    20    21   ar
    25    21    22   ar
    26    22    23    2
    27    22    24   ar
    28    24    25   ar
    29    24    29   ar
    30    25    26   ar
    31    26    27   ar
    32    27    28   ar
    33    28    29   ar
    34     5    31    1
    35     6    32    1
    36     7    33    1
    37     8    34    1
    38    12    35    1
    39    14    36    1
    40    15    37    1
    41    16    38    1
    42    18    39    1
    43    18    40    1
    44    21    41    1
    45    25    42    1
    46    26    43    1
    47    27    44    1
    48    28    45    1
    49    30    46    1
@<TRIPOS>MOLECULE
../data/bude_mols_rdkit_confs_charged/molecule_81.pdb
 46 49 0 0 0
SMALL
GASTEIGER

@<TRIPOS>ATOM
      1  O1         4.9660   -3.6820   -0.2360 O.co2   1  UNL1       -0.5446
      2  C1         4.9960   -2.8260    0.6720 C.2     1  UNL1        0.0724
      3  O2         4.6150   -3.2060    1.9710 O.co2   1  UNL1       -0.5446
      4  C2         5.4200   -1.4220    0.4590 C.ar    1  UNL1        0.0094
      5  C3         6.8170   -1.2770    0.2320 C.ar    1  UNL1       -0.0522
      6  C4         7.3920   -0.0280    0.1230 C.ar    1  UNL1       -0.0611
      7  C5         6.6310    1.1130    0.2230 C.ar    1  UNL1       -0.0610
      8  C6         5.2910    0.9530    0.4400 C.ar    1  UNL1       -0.0490
      9  C7         4.6950   -0.3530    0.5480 C.ar    1  UNL1        0.0458
     10  C8         3.2420   -0.1760    0.4600 C.2     1  UNL1        0.2489
     11  O3         2.6360    0.3120    1.4210 O.2     1  UNL1       -0.2698
     12  N1         2.5840   -0.5260   -0.7420 N.am    1  UNL1       -0.2815
     13  C9         1.2170   -0.1530   -0.9060 C.ar    1  UNL1        0.0339
     14  C10        0.9090    0.2820   -2.2280 C.ar    1  UNL1       -0.0405
     15  C11       -0.2880    0.7920   -2.4870 C.ar    1  UNL1       -0.0597
     16  C12       -1.2610    0.9150   -1.4760 C.ar    1  UNL1       -0.0581
     17  C13       -1.0230    0.5130   -0.2110 C.ar    1  UNL1       -0.0398
     18  C14       -1.9350    0.7330    0.9500 C.3     1  UNL1        0.0172
     19  C15       -3.1820   -0.0000    0.9210 C.ar    1  UNL1        0.0736
     20  N2        -3.2440   -1.2520    1.4260 N.ar    1  UNL1       -0.1750
     21  N3        -4.3010   -1.9960    1.3370 N.ar    1  UNL1       -0.2425
     22  C16       -5.4450   -1.5810    0.7080 C.ar    1  UNL1        0.2725
     23  O4        -6.4560   -2.3520    0.6330 O.2     1  UNL1       -0.2658
     24  C17       -5.4500   -0.3190    0.1660 C.ar    1  UNL1        0.0496
     25  C18       -6.6100    0.1750   -0.4160 C.ar    1  UNL1       -0.0487
     26  C19       -6.6520    1.4810   -0.8930 C.ar    1  UNL1       -0.0610
     27  C20       -5.5010    2.2720   -0.7680 C.ar    1  UNL1       -0.0611
     28  C21       -4.3710    1.7470   -0.1920 C.ar    1  UNL1       -0.0521
     29  C22       -4.3260    0.4620    0.2800 C.ar    1  UNL1        0.0106
     30  C23        0.2860   -0.0400    0.0470 C.ar    1  UNL1       -0.0369
     31 H           7.4086   -2.1184    0.1477 H       1  UNL1        0.0624
     32 H           8.4086    0.0514   -0.0360 H       1  UNL1        0.0618
     33 H           7.0538    2.0506    0.1378 H       1  UNL1        0.0618
     34 H           4.6920    1.7887    0.5286 H       1  UNL1        0.0625
     35 H           3.0595   -1.0168   -1.4507 H       1  UNL1        0.1551
     36 H           1.6125    0.2008   -2.9787 H       1  UNL1        0.0636
     37 H          -0.5100    1.1039   -3.4454 H       1  UNL1        0.0618
     38 H          -2.1796    1.3233   -1.7094 H       1  UNL1        0.0620
     39 H          -2.1688    1.7764    0.9903 H       1  UNL1        0.0377
     40 H          -1.4060    0.3711    1.8068 H       1  UNL1        0.0377
     41 H          -4.2812   -2.8952    1.7373 H       1  UNL1        0.1921
     42 H          -7.4434   -0.4286   -0.4949 H       1  UNL1        0.0625
     43 H          -7.5085    1.8582   -1.3278 H       1  UNL1        0.0618
     44 H          -5.5034    3.2463   -1.1082 H       1  UNL1        0.0618
     45 H          -3.5293    2.3388   -0.1121 H       1  UNL1        0.0624
     46 H           0.5111   -0.3597    1.0021 H       1  UNL1        0.0639
@<TRIPOS>UNITY_ATOM_ATTR
3 1
charge -1
@<TRIPOS>BOND
     1     1     2   ar
     2     2     3   ar
     3     2     4    1
     4     4     5   ar
     5     4     9   ar
     6     5     6   ar
     7     6     7   ar
     8     7     8   ar
     9     8     9   ar
    10     9    10    1
    11    10    11    2
    12    10    12   am
    13    12    13    1
    14    13    14   ar
    15    13    30   ar
    16    14    15   ar
    17    15    16   ar
    18    16    17   ar
    19    17    18    1
    20    17    30   ar
    21    18    19    1
    22    19    20   ar
    23    19    29   ar
    24    20    21   ar
    25    21    22   ar
    26    22    23    2
    27    22    24   ar
    28    24    25   ar
    29    24    29   ar
    30    25    26   ar
    31    26    27   ar
    32    27    28   ar
    33    28    29   ar
    34     5    31    1
    35     6    32    1
    36     7    33    1
    37     8    34    1
    38    12    35    1
    39    14    36    1
    40    15    37    1
    41    16    38    1
    42    18    39    1
    43    18    40    1
    44    21    41    1
    45    25    42    1
    46    26    43    1
    47    27    44    1
    48    28    45    1
    49    30    46    1
@<TRIPOS>MOLECULE
../data/bude_mols_rdkit_confs_charged/molecule_81.pdb
 46 49 0 0 0
SMALL
GASTEIGER

@<TRIPOS>ATOM
      1  O1         4.5730   -0.6470   -2.9540 O.co2   1  UNL1       -0.5446
      2  C1         4.8700   -1.4030   -1.9720 C.2     1  UNL1        0.0724
      3  O2         4.5750   -2.7320   -2.0620 O.co2   1  UNL1       -0.5446
      4  C2         5.5110   -0.8310   -0.7950 C.ar    1  UNL1        0.0094
      5  C3         6.8700   -1.1280   -0.5300 C.ar    1  UNL1       -0.0522
      6  C4         7.6120   -0.5760    0.4760 C.ar    1  UNL1       -0.0611
      7  C5         6.9630    0.3600    1.2830 C.ar    1  UNL1       -0.0610
      8  C6         5.6640    0.6650    1.0550 C.ar    1  UNL1       -0.0490
      9  C7         4.9030    0.0570   -0.0060 C.ar    1  UNL1        0.0458
     10  C8         3.4940    0.4310    0.1280 C.2     1  UNL1        0.2489
     11  O3         3.2810    1.7000    0.2280 O.2     1  UNL1       -0.2698
     12  N1         2.3770   -0.4050    0.1920 N.am    1  UNL1       -0.2815
     13  C9         1.0690    0.1360    0.5060 C.ar    1  UNL1        0.0339
     14  C10        0.9350    1.4410    0.9230 C.ar    1  UNL1       -0.0405
     15  C11       -0.2780    1.9330    1.3980 C.ar    1  UNL1       -0.0597
     16  C12       -1.3790    1.1270    1.4670 C.ar    1  UNL1       -0.0581
     17  C13       -1.3130   -0.1780    1.0680 C.ar    1  UNL1       -0.0398
     18  C14       -2.4910   -1.0720    1.1980 C.3     1  UNL1        0.0172
     19  C15       -3.4610   -1.0600    0.1060 C.ar    1  UNL1        0.0736
     20  N2        -3.3230   -1.9490   -0.9400 N.ar    1  UNL1       -0.1750
     21  N3        -4.0630   -1.9250   -2.0200 N.ar    1  UNL1       -0.2425
     22  C16       -5.0350   -1.0190   -2.2030 C.ar    1  UNL1        0.2725
     23  O4        -5.7640   -0.9540   -3.2210 O.2     1  UNL1       -0.2658
     24  C17       -5.2060   -0.1170   -1.1770 C.ar    1  UNL1        0.0496
     25  C18       -6.2410    0.8480   -1.2860 C.ar    1  UNL1       -0.0487
     26  C19       -6.4710    1.7410   -0.2710 C.ar    1  UNL1       -0.0610
     27  C20       -5.7070    1.7080    0.8650 C.ar    1  UNL1       -0.0611
     28  C21       -4.6970    0.7930    1.0090 C.ar    1  UNL1       -0.0521
     29  C22       -4.4540   -0.1070   -0.0250 C.ar    1  UNL1        0.0106
     30  C23       -0.0450   -0.6550    0.5730 C.ar    1  UNL1       -0.0369
     31 H           7.3360   -1.8142   -1.1440 H       1  UNL1        0.0624
     32 H           8.5984   -0.8369    0.6307 H       1  UNL1        0.0618
     33 H           7.4734    0.8194    2.0533 H       1  UNL1        0.0618
     34 H           5.2020    1.3586    1.6637 H       1  UNL1        0.0625
     35 H           2.4786   -1.3695    0.0225 H       1  UNL1        0.1551
     36 H           1.7526    2.0694    0.8827 H       1  UNL1        0.0636
     37 H          -0.3461    2.9171    1.7012 H       1  UNL1        0.0618
     38 H          -2.2693    1.5077    1.8240 H       1  UNL1        0.0620
     39 H          -3.0091   -0.7941    2.0920 H       1  UNL1        0.0377
     40 H          -2.0871   -2.0628    1.1976 H       1  UNL1        0.0377
     41 H          -3.9002   -2.5955   -2.7223 H       1  UNL1        0.1921
     42 H          -6.8253    0.8779   -2.1361 H       1  UNL1        0.0625
     43 H          -7.2234    2.4412   -0.3637 H       1  UNL1        0.0618
     44 H          -5.8946    2.3820    1.6237 H       1  UNL1        0.0618
     45 H          -4.1266    0.7715    1.8688 H       1  UNL1        0.0624
     46 H           0.0248   -1.6346    0.2559 H       1  UNL1        0.0639
@<TRIPOS>UNITY_ATOM_ATTR
3 1
charge -1
@<TRIPOS>BOND
     1     1     2   ar
     2     2     3   ar
     3     2     4    1
     4     4     5   ar
     5     4     9   ar
     6     5     6   ar
     7     6     7   ar
     8     7     8   ar
     9     8     9   ar
    10     9    10    1
    11    10    11    2
    12    10    12   am
    13    12    13    1
    14    13    14   ar
    15    13    30   ar
    16    14    15   ar
    17    15    16   ar
    18    16    17   ar
    19    17    18    1
    20    17    30   ar
    21    18    19    1
    22    19    20   ar
    23    19    29   ar
    24    20    21   ar
    25    21    22   ar
    26    22    23    2
    27    22    24   ar
    28    24    25   ar
    29    24    29   ar
    30    25    26   ar
    31    26    27   ar
    32    27    28   ar
    33    28    29   ar
    34     5    31    1
    35     6    32    1
    36     7    33    1
    37     8    34    1
    38    12    35    1
    39    14    36    1
    40    15    37    1
    41    16    38    1
    42    18    39    1
    43    18    40    1
    44    21    41    1
    45    25    42    1
    46    26    43    1
    47    27    44    1
    48    28    45    1
    49    30    46    1
@<TRIPOS>MOLECULE
../data/bude_mols_rdkit_confs_charged/molecule_81.pdb
 46 49 0 0 0
SMALL
GASTEIGER

@<TRIPOS>ATOM
      1  O1         4.2460   -3.2230   -0.9950 O.co2   1  UNL1       -0.5446
      2  C1         4.6950   -2.5100   -0.0540 C.2     1  UNL1        0.0724
      3  O2         4.6180   -3.0320    1.2120 O.co2   1  UNL1       -0.5446
      4  C2         5.2480   -1.2130   -0.3150 C.ar    1  UNL1        0.0094
      5  C3         6.6460   -0.9860   -0.0830 C.ar    1  UNL1       -0.0522
      6  C4         7.2380    0.2040   -0.3810 C.ar    1  UNL1       -0.0611
      7  C5         6.4640    1.2160   -0.9220 C.ar    1  UNL1       -0.0610
      8  C6         5.1180    1.0020   -1.1460 C.ar    1  UNL1       -0.0490
      9  C7         4.5010   -0.2210   -0.8340 C.ar    1  UNL1        0.0458
     10  C8         2.9880   -0.1960   -0.8660 C.2     1  UNL1        0.2489
     11  O3         2.3270   -0.4300   -1.8640 O.2     1  UNL1       -0.2698
     12  N1         2.3780    0.1540    0.3390 N.am    1  UNL1       -0.2815
     13  C9         1.0910    0.3690    0.8050 C.ar    1  UNL1        0.0339
     14  C10        1.0010    1.6140    1.5590 C.ar    1  UNL1       -0.0405
     15  C11       -0.1340    2.0090    2.1800 C.ar    1  UNL1       -0.0597
     16  C12       -1.2450    1.2350    2.1060 C.ar    1  UNL1       -0.0581
     17  C13       -1.2360    0.0450    1.4080 C.ar    1  UNL1       -0.0398
     18  C14       -2.4610   -0.7370    1.4670 C.3     1  UNL1        0.0172
     19  C15       -3.3280   -1.0220    0.3880 C.ar    1  UNL1        0.0736
     20  N2        -3.5550   -2.3250   -0.0090 N.ar    1  UNL1       -0.1750
     21  N3        -4.4500   -2.6940   -0.9170 N.ar    1  UNL1       -0.2425
     22  C16       -5.2470   -1.7900   -1.5490 C.ar    1  UNL1        0.2725
     23  O4        -6.1050   -2.1630   -2.4180 O.2     1  UNL1       -0.2658
     24  C17       -5.0910   -0.4640   -1.2150 C.ar    1  UNL1        0.0496
     25  C18       -5.8960    0.4560   -1.8760 C.ar    1  UNL1       -0.0487
     26  C19       -5.7510    1.8020   -1.5760 C.ar    1  UNL1       -0.0610
     27  C20       -4.8240    2.1850   -0.6370 C.ar    1  UNL1       -0.0611
     28  C21       -4.0450    1.2370   -0.0060 C.ar    1  UNL1       -0.0521
     29  C22       -4.1390   -0.0980   -0.2590 C.ar    1  UNL1        0.0106
     30  C23       -0.0600   -0.3530    0.7710 C.ar    1  UNL1       -0.0369
     31 H           7.2179   -1.7445    0.3203 H       1  UNL1        0.0624
     32 H           8.2449    0.3484   -0.2067 H       1  UNL1        0.0618
     33 H           6.8905    2.1259   -1.1568 H       1  UNL1        0.0618
     34 H           4.5501    1.7611   -1.5536 H       1  UNL1        0.0625
     35 H           3.0435    0.2835    1.0528 H       1  UNL1        0.1551
     36 H           1.8359    2.2174    1.6213 H       1  UNL1        0.0636
     37 H          -0.1543    2.8956    2.7078 H       1  UNL1        0.0618
     38 H          -2.1099    1.5406    2.5788 H       1  UNL1        0.0620
     39 H          -3.0726   -0.2419    2.1921 H       1  UNL1        0.0377
     40 H          -2.0433   -1.7100    1.6210 H       1  UNL1        0.0377
     41 H          -4.5398   -3.6488   -1.1396 H       1  UNL1        0.1921
     42 H          -6.5874    0.1439   -2.5757 H       1  UNL1        0.0625
     43 H          -6.3330    2.5084   -2.0528 H       1  UNL1        0.0618
     44 H          -4.7102    3.1837   -0.4032 H       1  UNL1        0.0618
     45 H          -3.3561    1.5557    0.6932 H       1  UNL1        0.0624
     46 H          -0.0645   -1.2419    0.2467 H       1  UNL1        0.0639
@<TRIPOS>UNITY_ATOM_ATTR
3 1
charge -1
@<TRIPOS>BOND
     1     1     2   ar
     2     2     3   ar
     3     2     4    1
     4     4     5   ar
     5     4     9   ar
     6     5     6   ar
     7     6     7   ar
     8     7     8   ar
     9     8     9   ar
    10     9    10    1
    11    10    11    2
    12    10    12   am
    13    12    13    1
    14    13    14   ar
    15    13    30   ar
    16    14    15   ar
    17    15    16   ar
    18    16    17   ar
    19    17    18    1
    20    17    30   ar
    21    18    19    1
    22    19    20   ar
    23    19    29   ar
    24    20    21   ar
    25    21    22   ar
    26    22    23    2
    27    22    24   ar
    28    24    25   ar
    29    24    29   ar
    30    25    26   ar
    31    26    27   ar
    32    27    28   ar
    33    28    29   ar
    34     5    31    1
    35     6    32    1
    36     7    33    1
    37     8    34    1
    38    12    35    1
    39    14    36    1
    40    15    37    1
    41    16    38    1
    42    18    39    1
    43    18    40    1
    44    21    41    1
    45    25    42    1
    46    26    43    1
    47    27    44    1
    48    28    45    1
    49    30    46    1
@<TRIPOS>MOLECULE
../data/bude_mols_rdkit_confs_charged/molecule_81.pdb
 46 49 0 0 0
SMALL
GASTEIGER

@<TRIPOS>ATOM
      1  O1        -3.6990   -2.0730    1.0230 O.co2   1  UNL1       -0.5446
      2  C1        -4.9990   -2.2340    0.6060 C.2     1  UNL1        0.0724
      3  O2        -5.5330   -3.4020    0.7880 O.co2   1  UNL1       -0.5446
      4  C2        -5.4340   -0.9920    0.0320 C.ar    1  UNL1        0.0094
      5  C3        -6.7160   -0.5020    0.4710 C.ar    1  UNL1       -0.0522
      6  C4        -7.1860    0.6160   -0.1190 C.ar    1  UNL1       -0.0611
      7  C5        -6.5010    1.2690   -1.1330 C.ar    1  UNL1       -0.0610
      8  C6        -5.2280    0.7760   -1.5610 C.ar    1  UNL1       -0.0490
      9  C7        -4.7470   -0.3280   -0.9550 C.ar    1  UNL1        0.0458
     10  C8        -3.2380   -0.5540   -0.9540 C.2     1  UNL1        0.2489
     11  O3        -2.6800   -1.5010   -1.3410 O.2     1  UNL1       -0.2698
     12  N1        -2.5590    0.5540   -0.3740 N.am    1  UNL1       -0.2815
     13  C9        -1.3320    0.9450    0.0410 C.ar    1  UNL1        0.0339
     14  C10       -1.4530    1.8010    1.1670 C.ar    1  UNL1       -0.0405
     15  C11       -0.3380    2.2930    1.7650 C.ar    1  UNL1       -0.0597
     16  C12        0.9110    1.9800    1.2930 C.ar    1  UNL1       -0.0581
     17  C13        1.1010    1.1700    0.2040 C.ar    1  UNL1       -0.0398
     18  C14        2.4040    0.9080   -0.3280 C.3     1  UNL1        0.0172
     19  C15        3.0950   -0.3430    0.0250 C.ar    1  UNL1        0.0736
     20  N2         2.4850   -1.4110    0.5520 N.ar    1  UNL1       -0.1750
     21  N3         3.2310   -2.4980    0.8050 N.ar    1  UNL1       -0.2425
     22  C16        4.5240   -2.6250    0.5850 C.ar    1  UNL1        0.2725
     23  O4         5.1770   -3.7250    0.8690 O.2     1  UNL1       -0.2658
     24  C17        5.2100   -1.5740    0.0430 C.ar    1  UNL1        0.0496
     25  C18        6.5590   -1.6080   -0.2120 C.ar    1  UNL1       -0.0487
     26  C19        7.1400   -0.5130   -0.7470 C.ar    1  UNL1       -0.0610
     27  C20        6.4710    0.6340   -1.0520 C.ar    1  UNL1       -0.0611
     28  C21        5.1120    0.6600   -0.7830 C.ar    1  UNL1       -0.0521
     29  C22        4.4580   -0.4250   -0.2320 C.ar    1  UNL1        0.0106
     30  C23       -0.0520    0.6410   -0.4240 C.ar    1  UNL1       -0.0369
     31 H          -7.2528   -0.9869    1.2071 H       1  UNL1        0.0624
     32 H          -8.0903    1.0005    0.1962 H       1  UNL1        0.0618
     33 H          -6.9080    2.1071   -1.5769 H       1  UNL1        0.0618
     34 H          -4.6961    1.2493   -2.3081 H       1  UNL1        0.0625
     35 H          -3.2008    1.2852   -0.2234 H       1  UNL1        0.1551
     36 H          -2.3867    2.0488    1.5302 H       1  UNL1        0.0636
     37 H          -0.4316    2.9111    2.5861 H       1  UNL1        0.0618
     38 H           1.7369    2.3681    1.7749 H       1  UNL1        0.0620
     39 H           3.0359    1.7118   -0.0126 H       1  UNL1        0.0377
     40 H           2.2302    0.8100   -1.3792 H       1  UNL1        0.0377
     41 H           2.7673   -3.2753    1.1923 H       1  UNL1        0.1921
     42 H           7.1155   -2.4507    0.0003 H       1  UNL1        0.0625
     43 H           8.1538   -0.5469   -0.9367 H       1  UNL1        0.0618
     44 H           6.9546    1.4468   -1.4648 H       1  UNL1        0.0618
     45 H           4.5736    1.5132   -1.0002 H       1  UNL1        0.0624
     46 H           0.0560    0.0192   -1.2406 H       1  UNL1        0.0639
@<TRIPOS>UNITY_ATOM_ATTR
3 1
charge -1
@<TRIPOS>BOND
     1     1     2   ar
     2     2     3   ar
     3     2     4    1
     4     4     5   ar
     5     4     9   ar
     6     5     6   ar
     7     6     7   ar
     8     7     8   ar
     9     8     9   ar
    10     9    10    1
    11    10    11    2
    12    10    12   am
    13    12    13    1
    14    13    14   ar
    15    13    30   ar
    16    14    15   ar
    17    15    16   ar
    18    16    17   ar
    19    17    18    1
    20    17    30   ar
    21    18    19    1
    22    19    20   ar
    23    19    29   ar
    24    20    21   ar
    25    21    22   ar
    26    22    23    2
    27    22    24   ar
    28    24    25   ar
    29    24    29   ar
    30    25    26   ar
    31    26    27   ar
    32    27    28   ar
    33    28    29   ar
    34     5    31    1
    35     6    32    1
    36     7    33    1
    37     8    34    1
    38    12    35    1
    39    14    36    1
    40    15    37    1
    41    16    38    1
    42    18    39    1
    43    18    40    1
    44    21    41    1
    45    25    42    1
    46    26    43    1
    47    27    44    1
    48    28    45    1
    49    30    46    1
@<TRIPOS>MOLECULE
../data/bude_mols_rdkit_confs_charged/molecule_81.pdb
 46 49 0 0 0
SMALL
GASTEIGER

@<TRIPOS>ATOM
      1  O1         6.9900    1.4000    2.4920 O.co2   1  UNL1       -0.5446
      2  C1         5.7820    1.2810    1.9820 C.2     1  UNL1        0.0724
      3  O2         4.7990    1.9510    2.6100 O.co2   1  UNL1       -0.5446
      4  C2         5.7900    0.4630    0.7980 C.ar    1  UNL1        0.0094
      5  C3         6.7740    0.6250   -0.1480 C.ar    1  UNL1       -0.0522
      6  C4         6.9320   -0.3370   -1.1310 C.ar    1  UNL1       -0.0611
      7  C5         6.1330   -1.4330   -1.1730 C.ar    1  UNL1       -0.0610
      8  C6         5.1360   -1.6260   -0.2160 C.ar    1  UNL1       -0.0490
      9  C7         4.9600   -0.6420    0.7710 C.ar    1  UNL1        0.0458
     10  C8         3.6120   -0.4160    1.3380 C.2     1  UNL1        0.2489
     11  O3         3.3660   -0.1300    2.4880 O.2     1  UNL1       -0.2698
     12  N1         2.5800   -0.5920    0.3330 N.am    1  UNL1       -0.2815
     13  C9         1.2710   -0.0900    0.4350 C.ar    1  UNL1        0.0339
     14  C10        1.0200    0.9030    1.3320 C.ar    1  UNL1       -0.0405
     15  C11       -0.2440    1.4760    1.3970 C.ar    1  UNL1       -0.0597
     16  C12       -1.2420    1.0400    0.5850 C.ar    1  UNL1       -0.0581
     17  C13       -0.9940    0.0230   -0.3210 C.ar    1  UNL1       -0.0398
     18  C14       -2.0070   -0.6130   -1.1240 C.3     1  UNL1        0.0172
     19  C15       -3.2960   -0.0320   -1.3400 C.ar    1  UNL1        0.0736
     20  N2        -3.5510    0.4630   -2.6090 N.ar    1  UNL1       -0.1750
     21  N3        -4.7840    0.6430   -3.0210 N.ar    1  UNL1       -0.2425
     22  C16       -5.8270    0.4040   -2.2020 C.ar    1  UNL1        0.2725
     23  O4        -6.9800    0.6420   -2.6170 O.2     1  UNL1       -0.2658
     24  C17       -5.6610   -0.0640   -0.9020 C.ar    1  UNL1        0.0496
     25  C18       -6.7210   -0.1660   -0.1020 C.ar    1  UNL1       -0.0487
     26  C19       -6.5400   -0.4640    1.2450 C.ar    1  UNL1       -0.0610
     27  C20       -5.2310   -0.6820    1.6970 C.ar    1  UNL1       -0.0611
     28  C21       -4.1650   -0.6050    0.8210 C.ar    1  UNL1       -0.0521
     29  C22       -4.3300   -0.2760   -0.5270 C.ar    1  UNL1        0.0106
     30  C23        0.2970   -0.5280   -0.3820 C.ar    1  UNL1       -0.0369
     31 H           7.3880    1.4542   -0.1257 H       1  UNL1        0.0624
     32 H           7.6693   -0.2187   -1.8433 H       1  UNL1        0.0618
     33 H           6.2642   -2.1316   -1.9211 H       1  UNL1        0.0618
     34 H           4.5429   -2.4704   -0.2329 H       1  UNL1        0.0625
     35 H           2.8133   -1.0991   -0.4780 H       1  UNL1        0.1551
     36 H           1.7682    1.2298    1.9632 H       1  UNL1        0.0636
     37 H          -0.4262    2.2390    2.0676 H       1  UNL1        0.0618
     38 H          -2.1807    1.4649    0.6432 H       1  UNL1        0.0620
     39 H          -2.1835   -1.5688   -0.6766 H       1  UNL1        0.0377
     40 H          -1.5763   -0.5589   -2.1020 H       1  UNL1        0.0377
     41 H          -4.9489    0.9564   -3.9396 H       1  UNL1        0.1921
     42 H          -7.6712   -0.0248   -0.4791 H       1  UNL1        0.0625
     43 H          -7.3432   -0.5226    1.8903 H       1  UNL1        0.0618
     44 H          -5.0622   -0.9016    2.6911 H       1  UNL1        0.0618
     45 H          -3.2146   -0.7970    1.1744 H       1  UNL1        0.0624
     46 H           0.5001   -1.2775   -1.0617 H       1  UNL1        0.0639
@<TRIPOS>UNITY_ATOM_ATTR
3 1
charge -1
@<TRIPOS>BOND
     1     1     2   ar
     2     2     3   ar
     3     2     4    1
     4     4     5   ar
     5     4     9   ar
     6     5     6   ar
     7     6     7   ar
     8     7     8   ar
     9     8     9   ar
    10     9    10    1
    11    10    11    2
    12    10    12   am
    13    12    13    1
    14    13    14   ar
    15    13    30   ar
    16    14    15   ar
    17    15    16   ar
    18    16    17   ar
    19    17    18    1
    20    17    30   ar
    21    18    19    1
    22    19    20   ar
    23    19    29   ar
    24    20    21   ar
    25    21    22   ar
    26    22    23    2
    27    22    24   ar
    28    24    25   ar
    29    24    29   ar
    30    25    26   ar
    31    26    27   ar
    32    27    28   ar
    33    28    29   ar
    34     5    31    1
    35     6    32    1
    36     7    33    1
    37     8    34    1
    38    12    35    1
    39    14    36    1
    40    15    37    1
    41    16    38    1
    42    18    39    1
    43    18    40    1
    44    21    41    1
    45    25    42    1
    46    26    43    1
    47    27    44    1
    48    28    45    1
    49    30    46    1
@<TRIPOS>MOLECULE
../data/bude_mols_rdkit_confs_charged/molecule_81.pdb
 46 49 0 0 0
SMALL
GASTEIGER

@<TRIPOS>ATOM
      1  O1         5.6150   -2.1660   -1.3810 O.co2   1  UNL1       -0.5446
      2  C1         5.9170   -0.9630   -1.6090 C.2     1  UNL1        0.0724
      3  O2         6.2880   -0.5670   -2.8410 O.co2   1  UNL1       -0.5446
      4  C2         5.8270   -0.0690   -0.4670 C.ar    1  UNL1        0.0094
      5  C3         7.0890    0.2380    0.1100 C.ar    1  UNL1       -0.0522
      6  C4         7.2170    0.8960    1.3000 C.ar    1  UNL1       -0.0611
      7  C5         6.0860    1.2840    1.9640 C.ar    1  UNL1       -0.0610
      8  C6         4.8810    1.0050    1.4230 C.ar    1  UNL1       -0.0490
      9  C7         4.7120    0.3050    0.1680 C.ar    1  UNL1        0.0458
     10  C8         3.3740    0.0940   -0.1070 C.2     1  UNL1        0.2489
     11  O3         2.9740   -1.1210   -0.1400 O.2     1  UNL1       -0.2698
     12  N1         2.3090    1.0790   -0.3220 N.am    1  UNL1       -0.2815
     13  C9         0.9820    0.4470   -0.2780 C.ar    1  UNL1        0.0339
     14  C10        0.8820   -0.4000    0.8580 C.ar    1  UNL1       -0.0405
     15  C11       -0.1530   -1.2340    1.0480 C.ar    1  UNL1       -0.0597
     16  C12       -1.1500   -1.2650    0.1020 C.ar    1  UNL1       -0.0581
     17  C13       -1.0780   -0.4360   -0.9840 C.ar    1  UNL1       -0.0398
     18  C14       -2.2410   -0.5600   -1.9000 C.3     1  UNL1        0.0172
     19  C15       -3.4700   -0.8390   -1.1280 C.ar    1  UNL1        0.0736
     20  N2        -3.7120   -2.1330   -0.7970 N.ar    1  UNL1       -0.1750
     21  N3        -4.7040   -2.5120   -0.0910 N.ar    1  UNL1       -0.2425
     22  C16       -5.6190   -1.6650    0.3990 C.ar    1  UNL1        0.2725
     23  O4        -6.6220   -2.0770    1.1070 O.2     1  UNL1       -0.2658
     24  C17       -5.4660   -0.3110    0.1260 C.ar    1  UNL1        0.0496
     25  C18       -6.3950    0.5520    0.6170 C.ar    1  UNL1       -0.0487
     26  C19       -6.2450    1.8980    0.3290 C.ar    1  UNL1       -0.0610
     27  C20       -5.1480    2.2850   -0.4510 C.ar    1  UNL1       -0.0611
     28  C21       -4.2150    1.3950   -0.9270 C.ar    1  UNL1       -0.0521
     29  C22       -4.3610    0.0660   -0.6490 C.ar    1  UNL1        0.0106
     30  C23        0.0020    0.4400   -1.1790 C.ar    1  UNL1       -0.0369
     31 H           7.9445   -0.0482   -0.3912 H       1  UNL1        0.0624
     32 H           8.1506    1.0969    1.6912 H       1  UNL1        0.0618
     33 H           6.1527    1.7826    2.8651 H       1  UNL1        0.0618
     34 H           4.0354    1.3071    1.9316 H       1  UNL1        0.0625
     35 H           2.4626    2.0392   -0.4759 H       1  UNL1        0.1551
     36 H           1.6338   -0.3733    1.5645 H       1  UNL1        0.0636
     37 H          -0.1989   -1.8372    1.8841 H       1  UNL1        0.0618
     38 H          -1.9483   -1.9100    0.2104 H       1  UNL1        0.0620
     39 H          -2.0658   -1.3609   -2.5875 H       1  UNL1        0.0377
     40 H          -2.3648    0.3588   -2.4342 H       1  UNL1        0.0377
     41 H          -4.8021   -3.4722    0.1031 H       1  UNL1        0.1921
     42 H          -7.1868    0.2145    1.1863 H       1  UNL1        0.0625
     43 H          -6.9211    2.5950    0.6785 H       1  UNL1        0.0618
     44 H          -5.0349    3.2851   -0.6790 H       1  UNL1        0.0618
     45 H          -3.4144    1.7268   -1.4873 H       1  UNL1        0.0624
     46 H           0.0352    1.0633   -2.0009 H       1  UNL1        0.0639
@<TRIPOS>UNITY_ATOM_ATTR
3 1
charge -1
@<TRIPOS>BOND
     1     1     2   ar
     2     2     3   ar
     3     2     4    1
     4     4     5   ar
     5     4     9   ar
     6     5     6   ar
     7     6     7   ar
     8     7     8   ar
     9     8     9   ar
    10     9    10    1
    11    10    11    2
    12    10    12   am
    13    12    13    1
    14    13    14   ar
    15    13    30   ar
    16    14    15   ar
    17    15    16   ar
    18    16    17   ar
    19    17    18    1
    20    17    30   ar
    21    18    19    1
    22    19    20   ar
    23    19    29   ar
    24    20    21   ar
    25    21    22   ar
    26    22    23    2
    27    22    24   ar
    28    24    25   ar
    29    24    29   ar
    30    25    26   ar
    31    26    27   ar
    32    27    28   ar
    33    28    29   ar
    34     5    31    1
    35     6    32    1
    36     7    33    1
    37     8    34    1
    38    12    35    1
    39    14    36    1
    40    15    37    1
    41    16    38    1
    42    18    39    1
    43    18    40    1
    44    21    41    1
    45    25    42    1
    46    26    43    1
    47    27    44    1
    48    28    45    1
    49    30    46    1
@<TRIPOS>MOLECULE
../data/bude_mols_rdkit_confs_charged/molecule_81.pdb
 46 49 0 0 0
SMALL
GASTEIGER

@<TRIPOS>ATOM
      1  O1         5.0710   -2.1860   -1.8930 O.co2   1  UNL1       -0.5446
      2  C1         5.2850   -0.8910   -1.8350 C.2     1  UNL1        0.0724
      3  O2         5.2150   -0.2750   -3.0260 O.co2   1  UNL1       -0.5446
      4  C2         5.5260   -0.3600   -0.5230 C.ar    1  UNL1        0.0094
      5  C3         6.8650   -0.1700   -0.1020 C.ar    1  UNL1       -0.0522
      6  C4         7.1010    0.1550    1.2150 C.ar    1  UNL1       -0.0611
      7  C5         5.9960    0.3110    2.0880 C.ar    1  UNL1       -0.0610
      8  C6         4.7140    0.1220    1.6960 C.ar    1  UNL1       -0.0490
      9  C7         4.5080   -0.2310    0.3560 C.ar    1  UNL1        0.0458
     10  C8         3.0970   -0.2620   -0.0360 C.2     1  UNL1        0.2489
     11  O3         2.6140   -1.2230   -0.5600 O.2     1  UNL1       -0.2698
     12  N1         2.3310    0.9890    0.2100 N.am    1  UNL1       -0.2815
     13  C9         0.9940    0.7390   -0.2090 C.ar    1  UNL1        0.0339
     14  C10        0.6830    0.7150   -1.5510 C.ar    1  UNL1       -0.0405
     15  C11       -0.4860    0.1630   -1.9530 C.ar    1  UNL1       -0.0597
     16  C12       -1.3770   -0.3710   -1.0140 C.ar    1  UNL1       -0.0581
     17  C13       -1.0770   -0.3460    0.3110 C.ar    1  UNL1       -0.0398
     18  C14       -2.0190   -1.0540    1.2980 C.3     1  UNL1        0.0172
     19  C15       -3.3140   -1.1170    0.5390 C.ar    1  UNL1        0.0736
     20  N2        -3.3920   -2.1180   -0.3680 N.ar    1  UNL1       -0.1750
     21  N3        -4.3000   -2.0400   -1.3420 N.ar    1  UNL1       -0.2425
     22  C16       -5.1650   -0.9820   -1.4610 C.ar    1  UNL1        0.2725
     23  O4        -6.0050   -0.9100   -2.3920 O.2     1  UNL1       -0.2658
     24  C17       -5.0970    0.0320   -0.5300 C.ar    1  UNL1        0.0496
     25  C18       -6.0000    1.0490   -0.5380 C.ar    1  UNL1       -0.0487
     26  C19       -5.9680    1.9840    0.4660 C.ar    1  UNL1       -0.0610
     27  C20       -5.0420    1.9190    1.4810 C.ar    1  UNL1       -0.0611
     28  C21       -4.1230    0.9030    1.4840 C.ar    1  UNL1       -0.0521
     29  C22       -4.1290   -0.0580    0.4920 C.ar    1  UNL1        0.0106
     30  C23        0.1000    0.2100    0.7170 C.ar    1  UNL1       -0.0369
     31 H           7.6467   -0.2729   -0.7679 H       1  UNL1        0.0624
     32 H           8.0652    0.2826    1.5600 H       1  UNL1        0.0618
     33 H           6.1767    0.5811    3.0675 H       1  UNL1        0.0618
     34 H           3.9260    0.2327    2.3531 H       1  UNL1        0.0625
     35 H           2.6810    1.8274    0.5892 H       1  UNL1        0.1551
     36 H           1.3355    1.1143   -2.2437 H       1  UNL1        0.0636
     37 H          -0.7218    0.1356   -2.9573 H       1  UNL1        0.0618
     38 H          -2.2672   -0.7862   -1.3303 H       1  UNL1        0.0620
     39 H          -2.1282   -0.4880    2.1994 H       1  UNL1        0.0377
     40 H          -1.6630   -2.0146    1.6070 H       1  UNL1        0.0377
     41 H          -4.3513   -2.7698   -2.0008 H       1  UNL1        0.1921
     42 H          -6.7020    1.1169   -1.2914 H       1  UNL1        0.0625
     43 H          -6.6550    2.7541    0.4593 H       1  UNL1        0.0618
     44 H          -5.0395    2.6273    2.2315 H       1  UNL1        0.0618
     45 H          -3.4181    0.8551    2.2362 H       1  UNL1        0.0624
     46 H           0.3305    0.2388    1.7225 H       1  UNL1        0.0639
@<TRIPOS>UNITY_ATOM_ATTR
3 1
charge -1
@<TRIPOS>BOND
     1     1     2   ar
     2     2     3   ar
     3     2     4    1
     4     4     5   ar
     5     4     9   ar
     6     5     6   ar
     7     6     7   ar
     8     7     8   ar
     9     8     9   ar
    10     9    10    1
    11    10    11    2
    12    10    12   am
    13    12    13    1
    14    13    14   ar
    15    13    30   ar
    16    14    15   ar
    17    15    16   ar
    18    16    17   ar
    19    17    18    1
    20    17    30   ar
    21    18    19    1
    22    19    20   ar
    23    19    29   ar
    24    20    21   ar
    25    21    22   ar
    26    22    23    2
    27    22    24   ar
    28    24    25   ar
    29    24    29   ar
    30    25    26   ar
    31    26    27   ar
    32    27    28   ar
    33    28    29   ar
    34     5    31    1
    35     6    32    1
    36     7    33    1
    37     8    34    1
    38    12    35    1
    39    14    36    1
    40    15    37    1
    41    16    38    1
    42    18    39    1
    43    18    40    1
    44    21    41    1
    45    25    42    1
    46    26    43    1
    47    27    44    1
    48    28    45    1
    49    30    46    1
@<TRIPOS>MOLECULE
../data/bude_mols_rdkit_confs_charged/molecule_81.pdb
 46 49 0 0 0
SMALL
GASTEIGER

@<TRIPOS>ATOM
      1  O1         5.1150   -0.0250    2.3330 O.co2   1  UNL1       -0.5446
      2  C1         5.2290    0.6560    1.3010 C.2     1  UNL1        0.0724
      3  O2         4.9660    2.0480    1.3170 O.co2   1  UNL1       -0.5446
      4  C2         5.6480    0.0660    0.0360 C.ar    1  UNL1        0.0094
      5  C3         6.9360   -0.3870   -0.0830 C.ar    1  UNL1       -0.0522
      6  C4         7.4320   -0.8940   -1.2890 C.ar    1  UNL1       -0.0611
      7  C5         6.5720   -0.9300   -2.3610 C.ar    1  UNL1       -0.0610
      8  C6         5.2490   -0.4620   -2.2280 C.ar    1  UNL1       -0.0490
      9  C7         4.7730    0.0260   -1.0820 C.ar    1  UNL1        0.0458
     10  C8         3.3890    0.4870   -0.8080 C.2     1  UNL1        0.2489
     11  O3         2.8030    1.4210   -1.3410 O.2     1  UNL1       -0.2698
     12  N1         2.6620   -0.2660    0.2300 N.am    1  UNL1       -0.2815
     13  C9         1.3660   -0.0150    0.7150 C.ar    1  UNL1        0.0339
     14  C10        1.1890   -0.1780    2.1150 C.ar    1  UNL1       -0.0405
     15  C11        0.0530    0.0540    2.7650 C.ar    1  UNL1       -0.0597
     16  C12       -1.0600    0.4830    2.0390 C.ar    1  UNL1       -0.0581
     17  C13       -0.9600    0.6530    0.6770 C.ar    1  UNL1       -0.0398
     18  C14       -2.2000    1.1090   -0.0590 C.3     1  UNL1        0.0172
     19  C15       -3.3460    0.3330    0.2900 C.ar    1  UNL1        0.0736
     20  N2        -3.2870   -0.3770    1.4590 N.ar    1  UNL1       -0.1750
     21  N3        -4.2630   -1.1030    1.9420 N.ar    1  UNL1       -0.2425
     22  C16       -5.4590   -1.2170    1.3000 C.ar    1  UNL1        0.2725
     23  O4        -6.3900   -1.9100    1.7820 O.2     1  UNL1       -0.2658
     24  C17       -5.6130   -0.5400    0.1130 C.ar    1  UNL1        0.0496
     25  C18       -6.7700   -0.6330   -0.6110 C.ar    1  UNL1       -0.0487
     26  C19       -6.8970    0.0200   -1.8080 C.ar    1  UNL1       -0.0610
     27  C20       -5.8430    0.7700   -2.2670 C.ar    1  UNL1       -0.0611
     28  C21       -4.6720    0.8770   -1.5680 C.ar    1  UNL1       -0.0521
     29  C22       -4.5630    0.2060   -0.3530 C.ar    1  UNL1        0.0106
     30  C23        0.2610    0.4000    0.0400 C.ar    1  UNL1       -0.0369
     31 H           7.5575   -0.3532    0.7402 H       1  UNL1        0.0624
     32 H           8.4051   -1.2278   -1.3706 H       1  UNL1        0.0618
     33 H           6.8966   -1.3015   -3.2675 H       1  UNL1        0.0618
     34 H           4.6249   -0.4985   -3.0491 H       1  UNL1        0.0625
     35 H           3.1372   -1.0306    0.6286 H       1  UNL1        0.1551
     36 H           1.9999   -0.4993    2.6665 H       1  UNL1        0.0636
     37 H          -0.0053   -0.0803    3.7866 H       1  UNL1        0.0618
     38 H          -1.9527    0.6716    2.5212 H       1  UNL1        0.0620
     39 H          -2.0295    1.0189   -1.1115 H       1  UNL1        0.0377
     40 H          -2.3927    2.1247    0.2169 H       1  UNL1        0.0377
     41 H          -4.1291   -1.5799    2.7928 H       1  UNL1        0.1921
     42 H          -7.5539   -1.2002   -0.2520 H       1  UNL1        0.0625
     43 H          -7.7693   -0.0505   -2.3550 H       1  UNL1        0.0618
     44 H          -5.9368    1.2679   -3.1661 H       1  UNL1        0.0618
     45 H          -3.8885    1.4413   -1.9324 H       1  UNL1        0.0624
     46 H           0.3247    0.5337   -0.9813 H       1  UNL1        0.0639
@<TRIPOS>UNITY_ATOM_ATTR
3 1
charge -1
@<TRIPOS>BOND
     1     1     2   ar
     2     2     3   ar
     3     2     4    1
     4     4     5   ar
     5     4     9   ar
     6     5     6   ar
     7     6     7   ar
     8     7     8   ar
     9     8     9   ar
    10     9    10    1
    11    10    11    2
    12    10    12   am
    13    12    13    1
    14    13    14   ar
    15    13    30   ar
    16    14    15   ar
    17    15    16   ar
    18    16    17   ar
    19    17    18    1
    20    17    30   ar
    21    18    19    1
    22    19    20   ar
    23    19    29   ar
    24    20    21   ar
    25    21    22   ar
    26    22    23    2
    27    22    24   ar
    28    24    25   ar
    29    24    29   ar
    30    25    26   ar
    31    26    27   ar
    32    27    28   ar
    33    28    29   ar
    34     5    31    1
    35     6    32    1
    36     7    33    1
    37     8    34    1
    38    12    35    1
    39    14    36    1
    40    15    37    1
    41    16    38    1
    42    18    39    1
    43    18    40    1
    44    21    41    1
    45    25    42    1
    46    26    43    1
    47    27    44    1
    48    28    45    1
    49    30    46    1
@<TRIPOS>MOLECULE
../data/bude_mols_rdkit_confs_charged/molecule_81.pdb
 46 49 0 0 0
SMALL
GASTEIGER

@<TRIPOS>ATOM
      1  O1         6.9580   -2.1410   -1.4470 O.co2   1  UNL1       -0.5446
      2  C1         5.8450   -1.7010   -1.0640 C.2     1  UNL1        0.0724
      3  O2         4.7250   -2.4530   -1.3700 O.co2   1  UNL1       -0.5446
      4  C2         5.6750   -0.4860   -0.2670 C.ar    1  UNL1        0.0094
      5  C3         6.5000    0.6680   -0.4730 C.ar    1  UNL1       -0.0522
      6  C4         6.4310    1.6910    0.4550 C.ar    1  UNL1       -0.0611
      7  C5         5.6190    1.6490    1.5700 C.ar    1  UNL1       -0.0610
      8  C6         4.8640    0.5150    1.7620 C.ar    1  UNL1       -0.0490
      9  C7         4.9140   -0.5300    0.8050 C.ar    1  UNL1        0.0458
     10  C8         3.5200   -1.1470    0.8490 C.2     1  UNL1        0.2489
     11  O3         3.1690   -2.0080    1.5650 O.2     1  UNL1       -0.2698
     12  N1         2.6200   -0.4410   -0.0980 N.am    1  UNL1       -0.2815
     13  C9         1.2590   -0.4380   -0.0180 C.ar    1  UNL1        0.0339
     14  C10        0.8330    0.3860    1.1080 C.ar    1  UNL1       -0.0405
     15  C11       -0.4440    0.6060    1.4320 C.ar    1  UNL1       -0.0597
     16  C12       -1.4040    0.0490    0.6160 C.ar    1  UNL1       -0.0581
     17  C13       -1.0580   -0.7100   -0.4720 C.ar    1  UNL1       -0.0398
     18  C14       -2.0980   -0.7670   -1.5550 C.3     1  UNL1        0.0172
     19  C15       -3.1070    0.2310   -0.9940 C.ar    1  UNL1        0.0736
     20  N2        -2.7710    1.5280   -1.0290 N.ar    1  UNL1       -0.1750
     21  N3        -3.6260    2.4360   -0.4760 N.ar    1  UNL1       -0.2425
     22  C16       -4.7940    2.0660    0.0720 C.ar    1  UNL1        0.2725
     23  O4        -5.6310    2.8810    0.5530 O.2     1  UNL1       -0.2658
     24  C17       -5.1640    0.7470    0.1120 C.ar    1  UNL1        0.0496
     25  C18       -6.3130    0.2740    0.6630 C.ar    1  UNL1       -0.0487
     26  C19       -6.6150   -1.0890    0.7230 C.ar    1  UNL1       -0.0610
     27  C20       -5.6870   -1.9580    0.2040 C.ar    1  UNL1       -0.0611
     28  C21       -4.5270   -1.5370   -0.3650 C.ar    1  UNL1       -0.0521
     29  C22       -4.2700   -0.1990   -0.4320 C.ar    1  UNL1        0.0106
     30  C23        0.2850   -0.9670   -0.7910 C.ar    1  UNL1       -0.0369
     31 H           7.1271    0.7335   -1.2900 H       1  UNL1        0.0624
     32 H           7.0162    2.5279    0.3062 H       1  UNL1        0.0618
     33 H           5.5796    2.4378    2.2342 H       1  UNL1        0.0618
     34 H           4.2649    0.4255    2.5975 H       1  UNL1        0.0625
     35 H           3.0357    0.0606   -0.8361 H       1  UNL1        0.1551
     36 H           1.5630    0.8259    1.6899 H       1  UNL1        0.0636
     37 H          -0.7004    1.1690    2.2580 H       1  UNL1        0.0618
     38 H          -2.4018    0.2059    0.8276 H       1  UNL1        0.0620
     39 H          -2.5182   -1.7462   -1.6528 H       1  UNL1        0.0377
     40 H          -1.7409   -0.5466   -2.5393 H       1  UNL1        0.0377
     41 H          -3.3794    3.3891   -0.4790 H       1  UNL1        0.1921
     42 H          -6.9896    0.9487    1.0528 H       1  UNL1        0.0625
     43 H          -7.4966   -1.4276    1.1390 H       1  UNL1        0.0618
     44 H          -5.8782   -2.9712    0.2478 H       1  UNL1        0.0618
     45 H          -3.8504   -2.2195   -0.7409 H       1  UNL1        0.0624
     46 H           0.5253   -1.5528   -1.6059 H       1  UNL1        0.0639
@<TRIPOS>UNITY_ATOM_ATTR
3 1
charge -1
@<TRIPOS>BOND
     1     1     2   ar
     2     2     3   ar
     3     2     4    1
     4     4     5   ar
     5     4     9   ar
     6     5     6   ar
     7     6     7   ar
     8     7     8   ar
     9     8     9   ar
    10     9    10    1
    11    10    11    2
    12    10    12   am
    13    12    13    1
    14    13    14   ar
    15    13    30   ar
    16    14    15   ar
    17    15    16   ar
    18    16    17   ar
    19    17    18    1
    20    17    30   ar
    21    18    19    1
    22    19    20   ar
    23    19    29   ar
    24    20    21   ar
    25    21    22   ar
    26    22    23    2
    27    22    24   ar
    28    24    25   ar
    29    24    29   ar
    30    25    26   ar
    31    26    27   ar
    32    27    28   ar
    33    28    29   ar
    34     5    31    1
    35     6    32    1
    36     7    33    1
    37     8    34    1
    38    12    35    1
    39    14    36    1
    40    15    37    1
    41    16    38    1
    42    18    39    1
    43    18    40    1
    44    21    41    1
    45    25    42    1
    46    26    43    1
    47    27    44    1
    48    28    45    1
    49    30    46    1
@<TRIPOS>MOLECULE
../data/bude_mols_rdkit_confs_charged/molecule_81.pdb
 46 49 0 0 0
SMALL
GASTEIGER

@<TRIPOS>ATOM
      1  O1        -5.3350   -1.6090   -1.6190 O.co2   1  UNL1       -0.5446
      2  C1        -5.2150   -1.3380   -0.3780 C.2     1  UNL1        0.0724
      3  O2        -4.6840   -2.2620    0.4670 O.co2   1  UNL1       -0.5446
      4  C2        -5.6210   -0.0080    0.1800 C.ar    1  UNL1        0.0094
      5  C3        -6.8340    0.0000    0.7350 C.ar    1  UNL1       -0.0522
      6  C4        -7.4240    1.2270    0.9370 C.ar    1  UNL1       -0.0611
      7  C5        -6.7890    2.3820    0.5590 C.ar    1  UNL1       -0.0610
      8  C6        -5.5150    2.3030   -0.0080 C.ar    1  UNL1       -0.0490
      9  C7        -4.9540    1.1040   -0.2120 C.ar    1  UNL1        0.0458
     10  C8        -3.5440    0.8580   -0.7030 C.2     1  UNL1        0.2489
     11  O3        -3.2370    1.1990   -1.8800 O.2     1  UNL1       -0.2698
     12  N1        -2.5820    0.2050    0.1050 N.am    1  UNL1       -0.2815
     13  C9        -1.3510   -0.4170   -0.2920 C.ar    1  UNL1        0.0339
     14  C10       -1.4440   -1.4010   -1.1960 C.ar    1  UNL1       -0.0405
     15  C11       -0.3990   -2.0800   -1.7120 C.ar    1  UNL1       -0.0597
     16  C12        0.8680   -1.7330   -1.2420 C.ar    1  UNL1       -0.0581
     17  C13        1.0030   -0.7480   -0.3180 C.ar    1  UNL1       -0.0398
     18  C14        2.2260   -0.7270    0.5830 C.3     1  UNL1        0.0172
     19  C15        3.4360   -0.3280   -0.0360 C.ar    1  UNL1        0.0736
     20  N2         3.6430   -0.6130   -1.3300 N.ar    1  UNL1       -0.1750
     21  N3         4.7070   -0.3690   -1.9910 N.ar    1  UNL1       -0.2425
     22  C16        5.7930    0.2540   -1.4780 C.ar    1  UNL1        0.2725
     23  O4         6.8220    0.5630   -2.1030 O.2     1  UNL1       -0.2658
     24  C17        5.7130    0.5300   -0.0940 C.ar    1  UNL1        0.0496
     25  C18        6.9010    0.8280    0.5740 C.ar    1  UNL1       -0.0487
     26  C19        6.8970    0.7720    1.9280 C.ar    1  UNL1       -0.0610
     27  C20        5.7610    0.4660    2.6210 C.ar    1  UNL1       -0.0611
     28  C21        4.5610    0.2020    1.9530 C.ar    1  UNL1       -0.0521
     29  C22        4.5810    0.2220    0.5750 C.ar    1  UNL1        0.0106
     30  C23       -0.1410   -0.0490    0.1720 C.ar    1  UNL1       -0.0369
     31 H          -7.3096   -0.8762    1.0015 H       1  UNL1        0.0624
     32 H          -8.3555    1.2783    1.3783 H       1  UNL1        0.0618
     33 H          -7.2464    3.2976    0.6917 H       1  UNL1        0.0618
     34 H          -5.0087    3.1638   -0.2683 H       1  UNL1        0.0625
     35 H          -2.7846    0.1734    1.0679 H       1  UNL1        0.1551
     36 H          -2.3881   -1.6596   -1.5229 H       1  UNL1        0.0636
     37 H          -0.5302   -2.8197   -2.4196 H       1  UNL1        0.0618
     38 H           1.7026   -2.2253   -1.5970 H       1  UNL1        0.0620
     39 H           2.3652   -1.7140    0.9720 H       1  UNL1        0.0377
     40 H           2.0243    0.0093    1.3327 H       1  UNL1        0.0377
     41 H           4.7397   -0.6518   -2.9334 H       1  UNL1        0.1921
     42 H           7.7551    1.0828    0.0539 H       1  UNL1        0.0625
     43 H           7.7691    0.9643    2.4452 H       1  UNL1        0.0618
     44 H           5.7883    0.4290    3.6520 H       1  UNL1        0.0618
     45 H           3.6926   -0.0003    2.4726 H       1  UNL1        0.0624
     46 H          -0.0442    0.7141    0.8600 H       1  UNL1        0.0639
@<TRIPOS>UNITY_ATOM_ATTR
3 1
charge -1
@<TRIPOS>BOND
     1     1     2   ar
     2     2     3   ar
     3     2     4    1
     4     4     5   ar
     5     4     9   ar
     6     5     6   ar
     7     6     7   ar
     8     7     8   ar
     9     8     9   ar
    10     9    10    1
    11    10    11    2
    12    10    12   am
    13    12    13    1
    14    13    14   ar
    15    13    30   ar
    16    14    15   ar
    17    15    16   ar
    18    16    17   ar
    19    17    18    1
    20    17    30   ar
    21    18    19    1
    22    19    20   ar
    23    19    29   ar
    24    20    21   ar
    25    21    22   ar
    26    22    23    2
    27    22    24   ar
    28    24    25   ar
    29    24    29   ar
    30    25    26   ar
    31    26    27   ar
    32    27    28   ar
    33    28    29   ar
    34     5    31    1
    35     6    32    1
    36     7    33    1
    37     8    34    1
    38    12    35    1
    39    14    36    1
    40    15    37    1
    41    16    38    1
    42    18    39    1
    43    18    40    1
    44    21    41    1
    45    25    42    1
    46    26    43    1
    47    27    44    1
    48    28    45    1
    49    30    46    1
@<TRIPOS>MOLECULE
../data/bude_mols_rdkit_confs_charged/molecule_81.pdb
 46 49 0 0 0
SMALL
GASTEIGER

@<TRIPOS>ATOM
      1  O1         4.9170    0.8090   -2.4930 O.co2   1  UNL1       -0.5446
      2  C1         5.1380    1.2250   -1.3200 C.2     1  UNL1        0.0724
      3  O2         4.8730    2.5620   -1.1100 O.co2   1  UNL1       -0.5446
      4  C2         5.6380    0.3550   -0.2970 C.ar    1  UNL1        0.0094
      5  C3         6.9290    0.4910    0.2000 C.ar    1  UNL1       -0.0522
      6  C4         7.4890   -0.3830    1.1110 C.ar    1  UNL1       -0.0611
      7  C5         6.6540   -1.4470    1.5190 C.ar    1  UNL1       -0.0610
      8  C6         5.3870   -1.5860    1.0480 C.ar    1  UNL1       -0.0490
      9  C7         4.9090   -0.6800    0.1450 C.ar    1  UNL1        0.0458
     10  C8         3.5230   -0.7690   -0.3440 C.2     1  UNL1        0.2489
     11  O3         3.1880   -1.8560   -0.9350 O.2     1  UNL1       -0.2698
     12  N1         2.6540    0.3360   -0.1780 N.am    1  UNL1       -0.2815
     13  C9         1.3350    0.2580   -0.7620 C.ar    1  UNL1        0.0339
     14  C10        1.2470    0.5310   -2.1180 C.ar    1  UNL1       -0.0405
     15  C11        0.0030    0.5270   -2.6740 C.ar    1  UNL1       -0.0597
     16  C12       -1.1330    0.2620   -1.9030 C.ar    1  UNL1       -0.0581
     17  C13       -1.1090   -0.0150   -0.5640 C.ar    1  UNL1       -0.0398
     18  C14       -2.0790   -0.2600    0.4410 C.3     1  UNL1        0.0172
     19  C15       -3.3950   -0.7680    0.4020 C.ar    1  UNL1        0.0736
     20  N2        -3.7750   -2.0500    0.6800 N.ar    1  UNL1       -0.1750
     21  N3        -4.9590   -2.5150    0.7690 N.ar    1  UNL1       -0.2425
     22  C16       -6.0240   -1.6650    0.5600 C.ar    1  UNL1        0.2725
     23  O4        -7.2300   -2.1050    0.6350 O.2     1  UNL1       -0.2658
     24  C17       -5.8040   -0.3390    0.2710 C.ar    1  UNL1        0.0496
     25  C18       -6.8590    0.5130    0.1030 C.ar    1  UNL1       -0.0487
     26  C19       -6.6070    1.8180   -0.1270 C.ar    1  UNL1       -0.0610
     27  C20       -5.2910    2.2670   -0.1770 C.ar    1  UNL1       -0.0611
     28  C21       -4.2370    1.3840   -0.0170 C.ar    1  UNL1       -0.0521
     29  C22       -4.4890    0.0670    0.2040 C.ar    1  UNL1        0.0106
     30  C23        0.2610    0.0160   -0.0530 C.ar    1  UNL1       -0.0369
     31 H           7.4986    1.2863   -0.1288 H       1  UNL1        0.0624
     32 H           8.4501   -0.2670    1.4686 H       1  UNL1        0.0618
     33 H           7.0166   -2.1384    2.1940 H       1  UNL1        0.0618
     34 H           4.7932   -2.3667    1.3688 H       1  UNL1        0.0625
     35 H           2.9403    1.1348    0.3212 H       1  UNL1        0.1551
     36 H           2.0879    0.7289   -2.6826 H       1  UNL1        0.0636
     37 H          -0.1026    0.7230   -3.6817 H       1  UNL1        0.0618
     38 H          -2.0503    0.2764   -2.3757 H       1  UNL1        0.0620
     39 H          -2.1968    0.6952    0.9086 H       1  UNL1        0.0377
     40 H          -1.6255   -1.1521    0.8196 H       1  UNL1        0.0377
     41 H          -5.1098   -3.4640    0.9831 H       1  UNL1        0.1921
     42 H          -7.8293    0.1649    0.1511 H       1  UNL1        0.0625
     43 H          -7.3864    2.4801   -0.2652 H       1  UNL1        0.0618
     44 H          -5.0987    3.2685   -0.3350 H       1  UNL1        0.0618
     45 H          -3.2640    1.7244   -0.0653 H       1  UNL1        0.0624
     46 H           0.3927   -0.1689    0.9537 H       1  UNL1        0.0639
@<TRIPOS>UNITY_ATOM_ATTR
3 1
charge -1
@<TRIPOS>BOND
     1     1     2   ar
     2     2     3   ar
     3     2     4    1
     4     4     5   ar
     5     4     9   ar
     6     5     6   ar
     7     6     7   ar
     8     7     8   ar
     9     8     9   ar
    10     9    10    1
    11    10    11    2
    12    10    12   am
    13    12    13    1
    14    13    14   ar
    15    13    30   ar
    16    14    15   ar
    17    15    16   ar
    18    16    17   ar
    19    17    18    1
    20    17    30   ar
    21    18    19    1
    22    19    20   ar
    23    19    29   ar
    24    20    21   ar
    25    21    22   ar
    26    22    23    2
    27    22    24   ar
    28    24    25   ar
    29    24    29   ar
    30    25    26   ar
    31    26    27   ar
    32    27    28   ar
    33    28    29   ar
    34     5    31    1
    35     6    32    1
    36     7    33    1
    37     8    34    1
    38    12    35    1
    39    14    36    1
    40    15    37    1
    41    16    38    1
    42    18    39    1
    43    18    40    1
    44    21    41    1
    45    25    42    1
    46    26    43    1
    47    27    44    1
    48    28    45    1
    49    30    46    1
@<TRIPOS>MOLECULE
../data/bude_mols_rdkit_confs_charged/molecule_81.pdb
 46 49 0 0 0
SMALL
GASTEIGER

@<TRIPOS>ATOM
      1  O1         3.5310    2.6370    1.9770 O.co2   1  UNL1       -0.5446
      2  C1         4.1430    1.6290    1.7930 C.2     1  UNL1        0.0724
      3  O2         4.0420    0.5630    2.7850 O.co2   1  UNL1       -0.5446
      4  C2         5.1040    1.2410    0.7740 C.ar    1  UNL1        0.0094
      5  C3         6.4590    1.5480    1.0240 C.ar    1  UNL1       -0.0522
      6  C4         7.3810    0.8740    0.2180 C.ar    1  UNL1       -0.0611
      7  C5         7.0020   -0.0390   -0.7250 C.ar    1  UNL1       -0.0610
      8  C6         5.6790   -0.3110   -0.9190 C.ar    1  UNL1       -0.0490
      9  C7         4.7220    0.3360   -0.1860 C.ar    1  UNL1        0.0458
     10  C8         3.2990    0.1940   -0.6370 C.2     1  UNL1        0.2489
     11  O3         2.8320    1.1600   -1.1580 O.2     1  UNL1       -0.2698
     12  N1         2.7030   -1.0350   -0.4290 N.am    1  UNL1       -0.2815
     13  C9         1.3180   -1.2480   -0.7830 C.ar    1  UNL1        0.0339
     14  C10        0.8490   -2.4480   -1.2010 C.ar    1  UNL1       -0.0405
     15  C11       -0.4570   -2.6690   -1.5170 C.ar    1  UNL1       -0.0597
     16  C12       -1.3470   -1.5950   -1.4110 C.ar    1  UNL1       -0.0581
     17  C13       -0.8950   -0.4050   -0.9760 C.ar    1  UNL1       -0.0398
     18  C14       -1.8160    0.6540   -0.3630 C.3     1  UNL1        0.0172
     19  C15       -3.0110   -0.1660    0.2390 C.ar    1  UNL1        0.0736
     20  N2        -2.9370   -1.4620    0.4010 N.ar    1  UNL1       -0.1750
     21  N3        -4.0990   -2.1650    0.5280 N.ar    1  UNL1       -0.2425
     22  C16       -5.2880   -1.5430    0.4830 C.ar    1  UNL1        0.2725
     23  O4        -6.3890   -2.2190    0.5680 O.2     1  UNL1       -0.2658
     24  C17       -5.4210   -0.1750    0.3360 C.ar    1  UNL1        0.0496
     25  C18       -6.5960    0.4890    0.1960 C.ar    1  UNL1       -0.0487
     26  C19       -6.6090    1.8670   -0.0630 C.ar    1  UNL1       -0.0610
     27  C20       -5.4130    2.5840   -0.1560 C.ar    1  UNL1       -0.0611
     28  C21       -4.2760    1.8520    0.0130 C.ar    1  UNL1       -0.0521
     29  C22       -4.1950    0.4970    0.2260 C.ar    1  UNL1        0.0106
     30  C23        0.4320   -0.1690   -0.6630 C.ar    1  UNL1       -0.0369
     31 H           6.7483    2.2220    1.7500 H       1  UNL1        0.0624
     32 H           8.3861    1.0737    0.3399 H       1  UNL1        0.0618
     33 H           7.7165   -0.5231   -1.2908 H       1  UNL1        0.0618
     34 H           5.3981   -1.0102   -1.6241 H       1  UNL1        0.0625
     35 H           3.2257   -1.7713   -0.0367 H       1  UNL1        0.1551
     36 H           1.5138   -3.2330   -1.2840 H       1  UNL1        0.0636
     37 H          -0.7800   -3.5995   -1.8250 H       1  UNL1        0.0618
     38 H          -2.3404   -1.7144   -1.6640 H       1  UNL1        0.0620
     39 H          -2.1633    1.3333   -1.1132 H       1  UNL1        0.0377
     40 H          -1.3183    1.2488    0.3742 H       1  UNL1        0.0377
     41 H          -4.0654   -3.1408    0.6543 H       1  UNL1        0.1921
     42 H          -7.4873   -0.0243    0.2808 H       1  UNL1        0.0625
     43 H          -7.5095    2.3559   -0.1860 H       1  UNL1        0.0618
     44 H          -5.3923    3.5992   -0.3402 H       1  UNL1        0.0618
     45 H          -3.3835    2.3689   -0.0227 H       1  UNL1        0.0624
     46 H           0.7552    0.7613   -0.3546 H       1  UNL1        0.0639
@<TRIPOS>UNITY_ATOM_ATTR
3 1
charge -1
@<TRIPOS>BOND
     1     1     2   ar
     2     2     3   ar
     3     2     4    1
     4     4     5   ar
     5     4     9   ar
     6     5     6   ar
     7     6     7   ar
     8     7     8   ar
     9     8     9   ar
    10     9    10    1
    11    10    11    2
    12    10    12   am
    13    12    13    1
    14    13    14   ar
    15    13    30   ar
    16    14    15   ar
    17    15    16   ar
    18    16    17   ar
    19    17    18    1
    20    17    30   ar
    21    18    19    1
    22    19    20   ar
    23    19    29   ar
    24    20    21   ar
    25    21    22   ar
    26    22    23    2
    27    22    24   ar
    28    24    25   ar
    29    24    29   ar
    30    25    26   ar
    31    26    27   ar
    32    27    28   ar
    33    28    29   ar
    34     5    31    1
    35     6    32    1
    36     7    33    1
    37     8    34    1
    38    12    35    1
    39    14    36    1
    40    15    37    1
    41    16    38    1
    42    18    39    1
    43    18    40    1
    44    21    41    1
    45    25    42    1
    46    26    43    1
    47    27    44    1
    48    28    45    1
    49    30    46    1
@<TRIPOS>MOLECULE
../data/bude_mols_rdkit_confs_charged/molecule_81.pdb
 46 49 0 0 0
SMALL
GASTEIGER

@<TRIPOS>ATOM
      1  O1         4.7690   -2.6960   -1.8720 O.co2   1  UNL1       -0.5446
      2  C1         4.9510   -1.9910   -0.8750 C.2     1  UNL1        0.0724
      3  O2         4.4020   -2.5640    0.3740 O.co2   1  UNL1       -0.5446
      4  C2         5.5500   -0.7240   -0.6450 C.ar    1  UNL1        0.0094
      5  C3         6.7610   -0.8090    0.1010 C.ar    1  UNL1       -0.0522
      6  C4         7.3720    0.3360    0.6660 C.ar    1  UNL1       -0.0611
      7  C5         6.7090    1.5370    0.4970 C.ar    1  UNL1       -0.0610
      8  C6         5.5990    1.5740   -0.2670 C.ar    1  UNL1       -0.0490
      9  C7         5.0010    0.3870   -0.8710 C.ar    1  UNL1        0.0458
     10  C8         3.6460    0.8650   -1.2570 C.2     1  UNL1        0.2489
     11  O3         3.5670    1.8800   -2.0160 O.2     1  UNL1       -0.2698
     12  N1         2.5440    0.2910   -0.8200 N.am    1  UNL1       -0.2815
     13  C9         1.1760    0.7770   -0.7120 C.ar    1  UNL1        0.0339
     14  C10        1.0920    1.1600    0.7170 C.ar    1  UNL1       -0.0405
     15  C11       -0.0690    1.2190    1.3530 C.ar    1  UNL1       -0.0597
     16  C12       -1.1800    0.9340    0.6300 C.ar    1  UNL1       -0.0581
     17  C13       -1.0910    0.5750   -0.7470 C.ar    1  UNL1       -0.0398
     18  C14       -2.3300    0.1480   -1.3140 C.3     1  UNL1        0.0172
     19  C15       -3.1270   -0.6550   -0.3070 C.ar    1  UNL1        0.0736
     20  N2        -2.7970   -1.8710    0.0660 N.ar    1  UNL1       -0.1750
     21  N3        -3.6310   -2.8270    0.5620 N.ar    1  UNL1       -0.2425
     22  C16       -4.9480   -2.4270    0.6790 C.ar    1  UNL1        0.2725
     23  O4        -5.8160   -3.2580    1.1460 O.2     1  UNL1       -0.2658
     24  C17       -5.3610   -1.1640    0.3830 C.ar    1  UNL1        0.0496
     25  C18       -6.6400   -0.8020    0.5380 C.ar    1  UNL1       -0.0487
     26  C19       -7.0240    0.4850    0.2230 C.ar    1  UNL1       -0.0610
     27  C20       -6.0770    1.4500   -0.2280 C.ar    1  UNL1       -0.0611
     28  C21       -4.7470    1.0440   -0.3550 C.ar    1  UNL1       -0.0521
     29  C22       -4.4310   -0.2530   -0.1050 C.ar    1  UNL1        0.0106
     30  C23        0.1640    0.4840   -1.4120 C.ar    1  UNL1       -0.0369
     31 H           7.2051   -1.7312    0.2331 H       1  UNL1        0.0624
     32 H           8.2663    0.2771    1.1777 H       1  UNL1        0.0618
     33 H           7.0596    2.3952    0.9504 H       1  UNL1        0.0618
     34 H           5.1491    2.4878   -0.4334 H       1  UNL1        0.0625
     35 H           2.6680   -0.6352   -0.5100 H       1  UNL1        0.1551
     36 H           1.9588    1.3863    1.2294 H       1  UNL1        0.0636
     37 H          -0.1250    1.4703    2.3524 H       1  UNL1        0.0618
     38 H          -2.1057    0.9777    1.0840 H       1  UNL1        0.0620
     39 H          -2.1333   -0.4599   -2.1723 H       1  UNL1        0.0377
     40 H          -2.8972    1.0109   -1.5945 H       1  UNL1        0.0377
     41 H          -3.3215   -3.7265    0.8155 H       1  UNL1        0.1921
     42 H          -7.3335   -1.4802    0.8904 H       1  UNL1        0.0625
     43 H          -8.0159    0.7542    0.3157 H       1  UNL1        0.0618
     44 H          -6.3643    2.4153   -0.4529 H       1  UNL1        0.0618
     45 H          -4.0168    1.7178   -0.6340 H       1  UNL1        0.0624
     46 H           0.2432    0.1978   -2.4003 H       1  UNL1        0.0639
@<TRIPOS>UNITY_ATOM_ATTR
3 1
charge -1
@<TRIPOS>BOND
     1     1     2   ar
     2     2     3   ar
     3     2     4    1
     4     4     5   ar
     5     4     9   ar
     6     5     6   ar
     7     6     7   ar
     8     7     8   ar
     9     8     9   ar
    10     9    10    1
    11    10    11    2
    12    10    12   am
    13    12    13    1
    14    13    14   ar
    15    13    30   ar
    16    14    15   ar
    17    15    16   ar
    18    16    17   ar
    19    17    18    1
    20    17    30   ar
    21    18    19    1
    22    19    20   ar
    23    19    29   ar
    24    20    21   ar
    25    21    22   ar
    26    22    23    2
    27    22    24   ar
    28    24    25   ar
    29    24    29   ar
    30    25    26   ar
    31    26    27   ar
    32    27    28   ar
    33    28    29   ar
    34     5    31    1
    35     6    32    1
    36     7    33    1
    37     8    34    1
    38    12    35    1
    39    14    36    1
    40    15    37    1
    41    16    38    1
    42    18    39    1
    43    18    40    1
    44    21    41    1
    45    25    42    1
    46    26    43    1
    47    27    44    1
    48    28    45    1
    49    30    46    1
@<TRIPOS>MOLECULE
../data/bude_mols_rdkit_confs_charged/molecule_81.pdb
 46 49 0 0 0
SMALL
GASTEIGER

@<TRIPOS>ATOM
      1  O1         5.6610   -2.9720   -0.3900 O.co2   1  UNL1       -0.5446
      2  C1         5.0000   -2.1030    0.2760 C.2     1  UNL1        0.0724
      3  O2         3.8160   -2.4760    0.8730 O.co2   1  UNL1       -0.5446
      4  C2         5.5720   -0.7690    0.3420 C.ar    1  UNL1        0.0094
      5  C3         6.8330   -0.5640    0.9250 C.ar    1  UNL1       -0.0522
      6  C4         7.4490    0.6530    1.0010 C.ar    1  UNL1       -0.0611
      7  C5         6.7650    1.7320    0.4610 C.ar    1  UNL1       -0.0610
      8  C6         5.5310    1.6100   -0.1280 C.ar    1  UNL1       -0.0490
      9  C7         4.9500    0.3240   -0.1700 C.ar    1  UNL1        0.0458
     10  C8         3.5850    0.2350   -0.7360 C.2     1  UNL1        0.2489
     11  O3         3.4820    0.3300   -1.9750 O.2     1  UNL1       -0.2698
     12  N1         2.4590    0.0660    0.1400 N.am    1  UNL1       -0.2815
     13  C9         1.1170   -0.0050   -0.2960 C.ar    1  UNL1        0.0339
     14  C10        0.7700   -0.4720   -1.5250 C.ar    1  UNL1       -0.0405
     15  C11       -0.5930   -0.4400   -1.8380 C.ar    1  UNL1       -0.0597
     16  C12       -1.5360    0.0340   -0.9630 C.ar    1  UNL1       -0.0581
     17  C13       -1.1760    0.5050    0.2780 C.ar    1  UNL1       -0.0398
     18  C14       -2.1440    1.0620    1.2780 C.3     1  UNL1        0.0172
     19  C15       -3.4920    1.1530    0.7200 C.ar    1  UNL1        0.0736
     20  N2        -4.0260    2.3170    0.2760 N.ar    1  UNL1       -0.1750
     21  N3        -5.2390    2.3980   -0.2300 N.ar    1  UNL1       -0.2425
     22  C16       -6.0600    1.3270   -0.3550 C.ar    1  UNL1        0.2725
     23  O4        -7.2100    1.4350   -0.8400 O.2     1  UNL1       -0.2658
     24  C17       -5.5540    0.1170    0.0840 C.ar    1  UNL1        0.0496
     25  C18       -6.3380   -1.0410    0.0040 C.ar    1  UNL1       -0.0487
     26  C19       -5.8760   -2.2690    0.4330 C.ar    1  UNL1       -0.0610
     27  C20       -4.5870   -2.3370    0.9630 C.ar    1  UNL1       -0.0611
     28  C21       -3.8150   -1.2070    1.0510 C.ar    1  UNL1       -0.0521
     29  C22       -4.2920    0.0380    0.6110 C.ar    1  UNL1        0.0106
     30  C23        0.1360    0.4820    0.6040 C.ar    1  UNL1       -0.0369
     31 H           7.3237   -1.3816    1.3196 H       1  UNL1        0.0624
     32 H           8.3771    0.7640    1.4384 H       1  UNL1        0.0618
     33 H           7.2021    2.6659    0.5038 H       1  UNL1        0.0618
     34 H           5.0454    2.4291   -0.5259 H       1  UNL1        0.0625
     35 H           2.6337   -0.0049    1.1063 H       1  UNL1        0.1551
     36 H           1.4732   -0.8302   -2.1900 H       1  UNL1        0.0636
     37 H          -0.8997   -0.7856   -2.7608 H       1  UNL1        0.0618
     38 H          -2.5303    0.0374   -1.2395 H       1  UNL1        0.0620
     39 H          -1.8206    2.0396    1.5688 H       1  UNL1        0.0377
     40 H          -2.1720    0.4053    2.1223 H       1  UNL1        0.0377
     41 H          -5.5644    3.2769   -0.5313 H       1  UNL1        0.1921
     42 H          -7.2904   -0.9740   -0.3878 H       1  UNL1        0.0625
     43 H          -6.4668   -3.1123    0.3638 H       1  UNL1        0.0618
     44 H          -4.2130   -3.2415    1.2902 H       1  UNL1        0.0618
     45 H          -2.8649   -1.2731    1.4484 H       1  UNL1        0.0624
     46 H           0.4305    0.8275    1.5308 H       1  UNL1        0.0639
@<TRIPOS>UNITY_ATOM_ATTR
3 1
charge -1
@<TRIPOS>BOND
     1     1     2   ar
     2     2     3   ar
     3     2     4    1
     4     4     5   ar
     5     4     9   ar
     6     5     6   ar
     7     6     7   ar
     8     7     8   ar
     9     8     9   ar
    10     9    10    1
    11    10    11    2
    12    10    12   am
    13    12    13    1
    14    13    14   ar
    15    13    30   ar
    16    14    15   ar
    17    15    16   ar
    18    16    17   ar
    19    17    18    1
    20    17    30   ar
    21    18    19    1
    22    19    20   ar
    23    19    29   ar
    24    20    21   ar
    25    21    22   ar
    26    22    23    2
    27    22    24   ar
    28    24    25   ar
    29    24    29   ar
    30    25    26   ar
    31    26    27   ar
    32    27    28   ar
    33    28    29   ar
    34     5    31    1
    35     6    32    1
    36     7    33    1
    37     8    34    1
    38    12    35    1
    39    14    36    1
    40    15    37    1
    41    16    38    1
    42    18    39    1
    43    18    40    1
    44    21    41    1
    45    25    42    1
    46    26    43    1
    47    27    44    1
    48    28    45    1
    49    30    46    1
@<TRIPOS>MOLECULE
../data/bude_mols_rdkit_confs_charged/molecule_81.pdb
 46 49 0 0 0
SMALL
GASTEIGER

@<TRIPOS>ATOM
      1  O1        -4.7190   -0.3030    2.5010 O.co2   1  UNL1       -0.5446
      2  C1        -5.1560    0.5530    1.7500 C.2     1  UNL1        0.0724
      3  O2        -5.3370    1.8720    2.2170 O.co2   1  UNL1       -0.5446
      4  C2        -5.5280    0.2960    0.3730 C.ar    1  UNL1        0.0094
      5  C3        -6.7140   -0.2420   -0.0530 C.ar    1  UNL1       -0.0522
      6  C4        -6.9880   -0.2600   -1.4150 C.ar    1  UNL1       -0.0611
      7  C5        -6.1110    0.2300   -2.3180 C.ar    1  UNL1       -0.0610
      8  C6        -4.8800    0.7800   -1.8850 C.ar    1  UNL1       -0.0490
      9  C7        -4.6150    0.7980   -0.5750 C.ar    1  UNL1        0.0458
     10  C8        -3.2500    0.8750   -0.0080 C.2     1  UNL1        0.2489
     11  O3        -2.7680    1.7210    0.7190 O.2     1  UNL1       -0.2698
     12  N1        -2.5010   -0.2800   -0.4700 N.am    1  UNL1       -0.2815
     13  C9        -1.2150   -0.5950   -0.0090 C.ar    1  UNL1        0.0339
     14  C10       -0.9220   -0.6070    1.3400 C.ar    1  UNL1       -0.0405
     15  C11        0.3320   -0.8710    1.8250 C.ar    1  UNL1       -0.0597
     16  C12        1.3460   -1.1240    0.8860 C.ar    1  UNL1       -0.0581
     17  C13        1.0510   -1.1150   -0.4450 C.ar    1  UNL1       -0.0398
     18  C14        2.2100   -1.0110   -1.4180 C.3     1  UNL1        0.0172
     19  C15        3.0640    0.0920   -0.7460 C.ar    1  UNL1        0.0736
     20  N2         2.4330    1.2630   -0.5940 N.ar    1  UNL1       -0.1750
     21  N3         3.0830    2.2980   -0.0390 N.ar    1  UNL1       -0.2425
     22  C16        4.3360    2.1770    0.3450 C.ar    1  UNL1        0.2725
     23  O4         5.0180    3.1440    0.8700 O.2     1  UNL1       -0.2658
     24  C17        4.9740    0.9520    0.2050 C.ar    1  UNL1        0.0496
     25  C18        6.2700    0.7710    0.6910 C.ar    1  UNL1       -0.0487
     26  C19        6.8460   -0.4590    0.5680 C.ar    1  UNL1       -0.0610
     27  C20        6.1760   -1.5290    0.0220 C.ar    1  UNL1       -0.0611
     28  C21        4.8560   -1.3560   -0.4550 C.ar    1  UNL1       -0.0521
     29  C22        4.3100   -0.1170   -0.3600 C.ar    1  UNL1        0.0106
     30  C23       -0.2120   -0.8710   -0.8930 C.ar    1  UNL1       -0.0369
     31 H          -7.3907   -0.6264    0.6247 H       1  UNL1        0.0624
     32 H          -7.8820   -0.6568   -1.7443 H       1  UNL1        0.0618
     33 H          -6.3383    0.2035   -3.3243 H       1  UNL1        0.0618
     34 H          -4.2027    1.1584   -2.5656 H       1  UNL1        0.0625
     35 H          -2.9163   -0.8705   -1.1394 H       1  UNL1        0.1551
     36 H          -1.6798   -0.4087    2.0119 H       1  UNL1        0.0636
     37 H           0.5239   -0.8835    2.8389 H       1  UNL1        0.0618
     38 H           2.3095   -1.3157    1.2023 H       1  UNL1        0.0620
     39 H           1.8800   -0.7137   -2.3915 H       1  UNL1        0.0377
     40 H           2.7302   -1.9313   -1.5834 H       1  UNL1        0.0377
     41 H           2.6174    3.1569    0.0821 H       1  UNL1        0.1921
     42 H           6.7810    1.5508    1.1336 H       1  UNL1        0.0625
     43 H           7.8158   -0.5912    0.8951 H       1  UNL1        0.0618
     44 H           6.6336   -2.4520   -0.0392 H       1  UNL1        0.0618
     45 H           4.3268   -2.1436   -0.8608 H       1  UNL1        0.0624
     46 H          -0.4116   -0.8949   -1.9052 H       1  UNL1        0.0639
@<TRIPOS>UNITY_ATOM_ATTR
3 1
charge -1
@<TRIPOS>BOND
     1     1     2   ar
     2     2     3   ar
     3     2     4    1
     4     4     5   ar
     5     4     9   ar
     6     5     6   ar
     7     6     7   ar
     8     7     8   ar
     9     8     9   ar
    10     9    10    1
    11    10    11    2
    12    10    12   am
    13    12    13    1
    14    13    14   ar
    15    13    30   ar
    16    14    15   ar
    17    15    16   ar
    18    16    17   ar
    19    17    18    1
    20    17    30   ar
    21    18    19    1
    22    19    20   ar
    23    19    29   ar
    24    20    21   ar
    25    21    22   ar
    26    22    23    2
    27    22    24   ar
    28    24    25   ar
    29    24    29   ar
    30    25    26   ar
    31    26    27   ar
    32    27    28   ar
    33    28    29   ar
    34     5    31    1
    35     6    32    1
    36     7    33    1
    37     8    34    1
    38    12    35    1
    39    14    36    1
    40    15    37    1
    41    16    38    1
    42    18    39    1
    43    18    40    1
    44    21    41    1
    45    25    42    1
    46    26    43    1
    47    27    44    1
    48    28    45    1
    49    30    46    1
@<TRIPOS>MOLECULE
../data/bude_mols_rdkit_confs_charged/molecule_81.pdb
 46 49 0 0 0
SMALL
GASTEIGER

@<TRIPOS>ATOM
      1  O1         6.3510   -2.5430    0.4440 O.co2   1  UNL1       -0.5446
      2  C1         5.6750   -1.5220    0.8120 C.2     1  UNL1        0.0724
      3  O2         5.0090   -1.6370    1.9860 O.co2   1  UNL1       -0.5446
      4  C2         5.6410   -0.3780    0.0380 C.ar    1  UNL1        0.0094
      5  C3         6.8310    0.4670    0.0010 C.ar    1  UNL1       -0.0522
      6  C4         6.9150    1.6160   -0.7960 C.ar    1  UNL1       -0.0611
      7  C5         5.7790    1.9170   -1.5650 C.ar    1  UNL1       -0.0610
      8  C6         4.6360    1.1400   -1.5200 C.ar    1  UNL1       -0.0490
      9  C7         4.5510    0.0140   -0.7250 C.ar    1  UNL1        0.0458
     10  C8         3.2610   -0.6250   -0.3850 C.2     1  UNL1        0.2489
     11  O3         2.9340   -1.7360   -0.6320 O.2     1  UNL1       -0.2698
     12  N1         2.3630    0.2280    0.3320 N.am    1  UNL1       -0.2815
     13  C9         1.1190    0.1200    0.9130 C.ar    1  UNL1        0.0339
     14  C10        0.9720    0.9810    2.0390 C.ar    1  UNL1       -0.0405
     15  C11       -0.1420    1.0330    2.7960 C.ar    1  UNL1       -0.0597
     16  C12       -1.1840    0.2270    2.4530 C.ar    1  UNL1       -0.0581
     17  C13       -1.1330   -0.6770    1.3300 C.ar    1  UNL1       -0.0398
     18  C14       -2.3240   -1.5000    1.1170 C.3     1  UNL1        0.0172
     19  C15       -3.2810   -1.3880    0.0970 C.ar    1  UNL1        0.0736
     20  N2        -3.4370   -2.4240   -0.7990 N.ar    1  UNL1       -0.1750
     21  N3        -4.3660   -2.4660   -1.7370 N.ar    1  UNL1       -0.2425
     22  C16       -5.2650   -1.5010   -1.9040 C.ar    1  UNL1        0.2725
     23  O4        -6.1210   -1.6370   -2.8180 O.2     1  UNL1       -0.2658
     24  C17       -5.1730   -0.4430   -1.0560 C.ar    1  UNL1        0.0496
     25  C18       -6.1360    0.5730   -1.2330 C.ar    1  UNL1       -0.0487
     26  C19       -6.0940    1.6580   -0.3920 C.ar    1  UNL1       -0.0610
     27  C20       -5.1300    1.7500    0.5990 C.ar    1  UNL1       -0.0611
     28  C21       -4.2160    0.7340    0.7300 C.ar    1  UNL1       -0.0521
     29  C22       -4.2150   -0.3880   -0.0870 C.ar    1  UNL1        0.0106
     30  C23        0.0400   -0.6570    0.6230 C.ar    1  UNL1       -0.0369
     31 H           7.6417    0.2078    0.5846 H       1  UNL1        0.0624
     32 H           7.7613    2.2062   -0.8168 H       1  UNL1        0.0618
     33 H           5.7979    2.7435   -2.1827 H       1  UNL1        0.0618
     34 H           3.8236    1.4092   -2.0967 H       1  UNL1        0.0625
     35 H           2.7334    1.1339    0.4383 H       1  UNL1        0.1551
     36 H           1.7609    1.5979    2.2882 H       1  UNL1        0.0636
     37 H          -0.2031    1.6642    3.6102 H       1  UNL1        0.0618
     38 H          -2.0458    0.2642    3.0196 H       1  UNL1        0.0620
     39 H          -2.8833   -1.4067    2.0244 H       1  UNL1        0.0377
     40 H          -1.8430   -2.3977    0.7889 H       1  UNL1        0.0377
     41 H          -4.3939   -3.2452   -2.3381 H       1  UNL1        0.1921
     42 H          -6.8515    0.5028   -1.9733 H       1  UNL1        0.0625
     43 H          -6.7886    2.4136   -0.4994 H       1  UNL1        0.0618
     44 H          -5.0996    2.5679    1.2276 H       1  UNL1        0.0618
     45 H          -3.4985    0.8077    1.4681 H       1  UNL1        0.0624
     46 H           0.1113   -1.2815   -0.1955 H       1  UNL1        0.0639
@<TRIPOS>UNITY_ATOM_ATTR
3 1
charge -1
@<TRIPOS>BOND
     1     1     2   ar
     2     2     3   ar
     3     2     4    1
     4     4     5   ar
     5     4     9   ar
     6     5     6   ar
     7     6     7   ar
     8     7     8   ar
     9     8     9   ar
    10     9    10    1
    11    10    11    2
    12    10    12   am
    13    12    13    1
    14    13    14   ar
    15    13    30   ar
    16    14    15   ar
    17    15    16   ar
    18    16    17   ar
    19    17    18    1
    20    17    30   ar
    21    18    19    1
    22    19    20   ar
    23    19    29   ar
    24    20    21   ar
    25    21    22   ar
    26    22    23    2
    27    22    24   ar
    28    24    25   ar
    29    24    29   ar
    30    25    26   ar
    31    26    27   ar
    32    27    28   ar
    33    28    29   ar
    34     5    31    1
    35     6    32    1
    36     7    33    1
    37     8    34    1
    38    12    35    1
    39    14    36    1
    40    15    37    1
    41    16    38    1
    42    18    39    1
    43    18    40    1
    44    21    41    1
    45    25    42    1
    46    26    43    1
    47    27    44    1
    48    28    45    1
    49    30    46    1
@<TRIPOS>MOLECULE
../data/bude_mols_rdkit_confs_charged/molecule_81.pdb
 46 49 0 0 0
SMALL
GASTEIGER

@<TRIPOS>ATOM
      1  O1        -2.8400   -0.6650    1.9510 O.co2   1  UNL1       -0.5446
      2  C1        -3.3660   -0.8490    0.8690 C.2     1  UNL1        0.0724
      3  O2        -2.6730   -1.6440   -0.1100 O.co2   1  UNL1       -0.5446
      4  C2        -4.7500   -0.5070    0.4330 C.ar    1  UNL1        0.0094
      5  C3        -5.7890   -1.2920    0.7130 C.ar    1  UNL1       -0.0522
      6  C4        -6.9700   -1.0950    0.0510 C.ar    1  UNL1       -0.0611
      7  C5        -7.0510   -0.1100   -0.8840 C.ar    1  UNL1       -0.0610
      8  C6        -5.9150    0.7160   -1.1830 C.ar    1  UNL1       -0.0490
      9  C7        -4.7850    0.5700   -0.5620 C.ar    1  UNL1        0.0458
     10  C8        -3.5640    1.3680   -0.3720 C.2     1  UNL1        0.2489
     11  O3        -3.6270    2.2990    0.5190 O.2     1  UNL1       -0.2698
     12  N1        -2.3860    1.1300   -1.0590 N.am    1  UNL1       -0.2815
     13  C9        -1.1430    1.6490   -0.4830 C.ar    1  UNL1        0.0339
     14  C10       -1.0210    2.5760    0.4760 C.ar    1  UNL1       -0.0405
     15  C11        0.0780    2.4330    1.3650 C.ar    1  UNL1       -0.0597
     16  C12        0.9830    1.3870    1.2840 C.ar    1  UNL1       -0.0581
     17  C13        0.8630    0.4190    0.3010 C.ar    1  UNL1       -0.0398
     18  C14        1.6630   -0.8310    0.1590 C.3     1  UNL1        0.0172
     19  C15        2.8180   -0.4610   -0.6720 C.ar    1  UNL1        0.0736
     20  N2         2.5550    0.4530   -1.6670 N.ar    1  UNL1       -0.1750
     21  N3         3.6520    0.9630   -2.2420 N.ar    1  UNL1       -0.2425
     22  C16        4.8850    0.6440   -1.8900 C.ar    1  UNL1        0.2725
     23  O4         5.8560    1.1590   -2.4680 O.2     1  UNL1       -0.2658
     24  C17        5.1650   -0.2920   -0.8790 C.ar    1  UNL1        0.0496
     25  C18        6.4210   -0.7240   -0.6800 C.ar    1  UNL1       -0.0487
     26  C19        6.5890   -1.7700    0.1760 C.ar    1  UNL1       -0.0610
     27  C20        5.5480   -2.3320    0.7780 C.ar    1  UNL1       -0.0611
     28  C21        4.2580   -1.9250    0.5730 C.ar    1  UNL1       -0.0521
     29  C22        4.0640   -0.8470   -0.2920 C.ar    1  UNL1        0.0106
     30  C23       -0.1910    0.6040   -0.5930 C.ar    1  UNL1       -0.0369
     31 H          -5.7043   -2.0390    1.4200 H       1  UNL1        0.0624
     32 H          -7.7898   -1.6866    0.2584 H       1  UNL1        0.0618
     33 H          -7.9399    0.0455   -1.3846 H       1  UNL1        0.0618
     34 H          -5.9994    1.4438   -1.9098 H       1  UNL1        0.0625
     35 H          -2.3836    0.6287   -1.9063 H       1  UNL1        0.1551
     36 H          -1.6918    3.3552    0.5648 H       1  UNL1        0.0636
     37 H           0.2081    3.1406    2.1049 H       1  UNL1        0.0618
     38 H           1.7563    1.3285    1.9649 H       1  UNL1        0.0620
     39 H           1.0852   -1.5932   -0.3207 H       1  UNL1        0.0377
     40 H           1.9640   -1.2217    1.1086 H       1  UNL1        0.0377
     41 H           3.5325    1.6144   -2.9704 H       1  UNL1        0.1921
     42 H           7.2239   -0.2826   -1.1550 H       1  UNL1        0.0625
     43 H           7.5385   -2.1305    0.3590 H       1  UNL1        0.0618
     44 H           5.7197   -3.1123    1.4311 H       1  UNL1        0.0618
     45 H           3.4643   -2.3939    1.0370 H       1  UNL1        0.0624
     46 H          -0.2834   -0.0575   -1.3797 H       1  UNL1        0.0639
@<TRIPOS>UNITY_ATOM_ATTR
3 1
charge -1
@<TRIPOS>BOND
     1     1     2   ar
     2     2     3   ar
     3     2     4    1
     4     4     5   ar
     5     4     9   ar
     6     5     6   ar
     7     6     7   ar
     8     7     8   ar
     9     8     9   ar
    10     9    10    1
    11    10    11    2
    12    10    12   am
    13    12    13    1
    14    13    14   ar
    15    13    30   ar
    16    14    15   ar
    17    15    16   ar
    18    16    17   ar
    19    17    18    1
    20    17    30   ar
    21    18    19    1
    22    19    20   ar
    23    19    29   ar
    24    20    21   ar
    25    21    22   ar
    26    22    23    2
    27    22    24   ar
    28    24    25   ar
    29    24    29   ar
    30    25    26   ar
    31    26    27   ar
    32    27    28   ar
    33    28    29   ar
    34     5    31    1
    35     6    32    1
    36     7    33    1
    37     8    34    1
    38    12    35    1
    39    14    36    1
    40    15    37    1
    41    16    38    1
    42    18    39    1
    43    18    40    1
    44    21    41    1
    45    25    42    1
    46    26    43    1
    47    27    44    1
    48    28    45    1
    49    30    46    1
@<TRIPOS>MOLECULE
../data/bude_mols_rdkit_confs_charged/molecule_81.pdb
 46 49 0 0 0
SMALL
GASTEIGER

@<TRIPOS>ATOM
      1  O1         5.7790   -1.2430   -3.4850 O.co2   1  UNL1       -0.5446
      2  C1         5.6820   -1.5190   -2.3730 C.2     1  UNL1        0.0724
      3  O2         5.4010   -2.6780   -1.8190 O.co2   1  UNL1       -0.5446
      4  C2         5.7790   -0.4010   -1.2940 C.ar    1  UNL1        0.0094
      5  C3         6.7380    0.5590   -1.5940 C.ar    1  UNL1       -0.0522
      6  C4         6.8290    1.6960   -0.7260 C.ar    1  UNL1       -0.0611
      7  C5         5.9500    1.7060    0.3520 C.ar    1  UNL1       -0.0610
      8  C6         5.0220    0.7290    0.6520 C.ar    1  UNL1       -0.0490
      9  C7         4.9540   -0.4410   -0.3680 C.ar    1  UNL1        0.0458
     10  C8         3.7600   -1.2550   -0.0590 C.2     1  UNL1        0.2489
     11  O3         3.7940   -2.3220    0.4860 O.2     1  UNL1       -0.2698
     12  N1         2.5630   -0.6660   -0.4680 N.am    1  UNL1       -0.2815
     13  C9         1.2530   -0.9590    0.1300 C.ar    1  UNL1        0.0339
     14  C10        1.3970   -1.3100    1.5150 C.ar    1  UNL1       -0.0405
     15  C11        0.2910   -0.9690    2.2700 C.ar    1  UNL1       -0.0597
     16  C12       -0.7670   -0.3230    1.7970 C.ar    1  UNL1       -0.0581
     17  C13       -0.9170   -0.0200    0.4710 C.ar    1  UNL1       -0.0398
     18  C14       -2.0890    0.6510   -0.0310 C.3     1  UNL1        0.0172
     19  C15       -3.2030   -0.1730    0.3470 C.ar    1  UNL1        0.0736
     20  N2        -3.1970   -1.2020    1.2350 N.ar    1  UNL1       -0.1750
     21  N3        -3.9800   -1.9460    1.7750 N.ar    1  UNL1       -0.2425
     22  C16       -5.3780   -1.7390    1.3590 C.ar    1  UNL1        0.2725
     23  O4        -6.2360   -2.3600    1.7500 O.2     1  UNL1       -0.2658
     24  C17       -5.5280   -0.7000    0.4190 C.ar    1  UNL1        0.0496
     25  C18       -6.8460   -0.4480   -0.0090 C.ar    1  UNL1       -0.0487
     26  C19       -7.0860    0.5010   -0.9310 C.ar    1  UNL1       -0.0610
     27  C20       -6.0050    1.1650   -1.4700 C.ar    1  UNL1       -0.0611
     28  C21       -4.7410    1.0010   -1.0480 C.ar    1  UNL1       -0.0521
     29  C22       -4.4860    0.1190   -0.1290 C.ar    1  UNL1        0.0106
     30  C23        0.1950   -0.4030   -0.3860 C.ar    1  UNL1       -0.0369
     31 H           7.3608    0.4572   -2.4105 H       1  UNL1        0.0624
     32 H           7.5041    2.4591   -0.8905 H       1  UNL1        0.0618
     33 H           5.9958    2.5189    0.9861 H       1  UNL1        0.0618
     34 H           4.4200    0.7724    1.4891 H       1  UNL1        0.0625
     35 H           2.5983   -0.0128   -1.2038 H       1  UNL1        0.1551
     36 H           2.2360   -1.7676    1.9045 H       1  UNL1        0.0636
     37 H           0.2877   -1.2342    3.2673 H       1  UNL1        0.0618
     38 H          -1.5075   -0.0372    2.4565 H       1  UNL1        0.0620
     39 H          -2.0382    0.7435   -1.0958 H       1  UNL1        0.0377
     40 H          -2.1776    1.6402    0.3671 H       1  UNL1        0.0377
     41 H          -3.7093   -2.6274    2.4320 H       1  UNL1        0.1921
     42 H          -7.6288   -0.9925    0.3856 H       1  UNL1        0.0625
     43 H          -8.0493    0.7251   -1.2258 H       1  UNL1        0.0618
     44 H          -6.1773    1.8267   -2.2429 H       1  UNL1        0.0618
     45 H          -3.9795    1.5700   -1.4498 H       1  UNL1        0.0624
     46 H           0.1449   -0.2339   -1.4028 H       1  UNL1        0.0639
@<TRIPOS>UNITY_ATOM_ATTR
3 1
charge -1
@<TRIPOS>BOND
     1     1     2   ar
     2     2     3   ar
     3     2     4    1
     4     4     5   ar
     5     4     9   ar
     6     5     6   ar
     7     6     7   ar
     8     7     8   ar
     9     8     9   ar
    10     9    10    1
    11    10    11    2
    12    10    12   am
    13    12    13    1
    14    13    14   ar
    15    13    30   ar
    16    14    15   ar
    17    15    16   ar
    18    16    17   ar
    19    17    18    1
    20    17    30   ar
    21    18    19    1
    22    19    20   ar
    23    19    29   ar
    24    20    21   ar
    25    21    22   ar
    26    22    23    2
    27    22    24   ar
    28    24    25   ar
    29    24    29   ar
    30    25    26   ar
    31    26    27   ar
    32    27    28   ar
    33    28    29   ar
    34     5    31    1
    35     6    32    1
    36     7    33    1
    37     8    34    1
    38    12    35    1
    39    14    36    1
    40    15    37    1
    41    16    38    1
    42    18    39    1
    43    18    40    1
    44    21    41    1
    45    25    42    1
    46    26    43    1
    47    27    44    1
    48    28    45    1
    49    30    46    1
@<TRIPOS>MOLECULE
../data/bude_mols_rdkit_confs_charged/molecule_81.pdb
 46 49 0 0 0
SMALL
GASTEIGER

@<TRIPOS>ATOM
      1  O1         4.2540    2.8570   -0.5020 O.co2   1  UNL1       -0.5446
      2  C1         4.0960    2.2030    0.5330 C.2     1  UNL1        0.0724
      3  O2         3.2540    2.5700    1.5270 O.co2   1  UNL1       -0.5446
      4  C2         4.8900    0.9240    0.6260 C.ar    1  UNL1        0.0094
      5  C3         6.2120    1.0960    1.0350 C.ar    1  UNL1       -0.0522
      6  C4         7.0460   -0.0330    1.1710 C.ar    1  UNL1       -0.0611
      7  C5         6.5080   -1.2470    0.9110 C.ar    1  UNL1       -0.0610
      8  C6         5.1990   -1.3970    0.5250 C.ar    1  UNL1       -0.0490
      9  C7         4.3570   -0.2630    0.3730 C.ar    1  UNL1        0.0458
     10  C8         3.0220   -0.5800   -0.1550 C.2     1  UNL1        0.2489
     11  O3         2.6770   -1.7670   -0.3700 O.2     1  UNL1       -0.2698
     12  N1         1.9790    0.3590   -0.4990 N.am    1  UNL1       -0.2815
     13  C9         0.7560   -0.2350   -1.0430 C.ar    1  UNL1        0.0339
     14  C10        0.8320   -0.4730   -2.4310 C.ar    1  UNL1       -0.0405
     15  C11       -0.1740   -1.1670   -3.1080 C.ar    1  UNL1       -0.0597
     16  C12       -1.2390   -1.6160   -2.3900 C.ar    1  UNL1       -0.0581
     17  C13       -1.3300   -1.3780   -0.9900 C.ar    1  UNL1       -0.0398
     18  C14       -2.4940   -1.8830   -0.2740 C.3     1  UNL1        0.0172
     19  C15       -3.2600   -0.9590    0.5680 C.ar    1  UNL1        0.0736
     20  N2        -3.3120   -1.1540    1.8800 N.ar    1  UNL1       -0.1750
     21  N3        -3.9870   -0.4080    2.7250 N.ar    1  UNL1       -0.2425
     22  C16       -4.7210    0.6410    2.2370 C.ar    1  UNL1        0.2725
     23  O4        -5.3840    1.3560    3.0310 O.2     1  UNL1       -0.2658
     24  C17       -4.7070    0.8670    0.9050 C.ar    1  UNL1        0.0496
     25  C18       -5.3660    1.9790    0.3290 C.ar    1  UNL1       -0.0487
     26  C19       -5.3070    2.2670   -0.9930 C.ar    1  UNL1       -0.0610
     27  C20       -4.5750    1.4880   -1.8420 C.ar    1  UNL1       -0.0611
     28  C21       -3.9060    0.3840   -1.3260 C.ar    1  UNL1       -0.0521
     29  C22       -3.9720    0.0780    0.0280 C.ar    1  UNL1        0.0106
     30  C23       -0.2980   -0.6770   -0.3500 C.ar    1  UNL1       -0.0369
     31 H           6.5765    2.0403    1.2362 H       1  UNL1        0.0624
     32 H           8.0324    0.0634    1.4588 H       1  UNL1        0.0618
     33 H           7.1003   -2.0867    1.0058 H       1  UNL1        0.0618
     34 H           4.8237   -2.3411    0.3438 H       1  UNL1        0.0625
     35 H           2.0833    1.3302   -0.3762 H       1  UNL1        0.1551
     36 H           1.6488   -0.1269   -2.9583 H       1  UNL1        0.0636
     37 H          -0.1111   -1.3344   -4.1244 H       1  UNL1        0.0618
     38 H          -1.9914   -2.1365   -2.8675 H       1  UNL1        0.0620
     39 H          -2.1546   -2.6768    0.3581 H       1  UNL1        0.0377
     40 H          -3.1785   -2.1539   -1.0506 H       1  UNL1        0.0377
     41 H          -3.9658   -0.5991    3.6905 H       1  UNL1        0.1921
     42 H          -5.9164    2.5984    0.9441 H       1  UNL1        0.0625
     43 H          -5.8201    3.0829   -1.3619 H       1  UNL1        0.0618
     44 H          -4.5193    1.7142   -2.8474 H       1  UNL1        0.0618
     45 H          -3.3528   -0.2166   -1.9571 H       1  UNL1        0.0624
     46 H          -0.3527   -0.5007    0.6654 H       1  UNL1        0.0639
@<TRIPOS>UNITY_ATOM_ATTR
3 1
charge -1
@<TRIPOS>BOND
     1     1     2   ar
     2     2     3   ar
     3     2     4    1
     4     4     5   ar
     5     4     9   ar
     6     5     6   ar
     7     6     7   ar
     8     7     8   ar
     9     8     9   ar
    10     9    10    1
    11    10    11    2
    12    10    12   am
    13    12    13    1
    14    13    14   ar
    15    13    30   ar
    16    14    15   ar
    17    15    16   ar
    18    16    17   ar
    19    17    18    1
    20    17    30   ar
    21    18    19    1
    22    19    20   ar
    23    19    29   ar
    24    20    21   ar
    25    21    22   ar
    26    22    23    2
    27    22    24   ar
    28    24    25   ar
    29    24    29   ar
    30    25    26   ar
    31    26    27   ar
    32    27    28   ar
    33    28    29   ar
    34     5    31    1
    35     6    32    1
    36     7    33    1
    37     8    34    1
    38    12    35    1
    39    14    36    1
    40    15    37    1
    41    16    38    1
    42    18    39    1
    43    18    40    1
    44    21    41    1
    45    25    42    1
    46    26    43    1
    47    27    44    1
    48    28    45    1
    49    30    46    1
@<TRIPOS>MOLECULE
../data/bude_mols_rdkit_confs_charged/molecule_81.pdb
 46 49 0 0 0
SMALL
GASTEIGER

@<TRIPOS>ATOM
      1  O1         4.8940    3.5880    0.3660 O.co2   1  UNL1       -0.5446
      2  C1         4.3380    2.4820    0.0550 C.2     1  UNL1        0.0724
      3  O2         2.9980    2.4780   -0.1980 O.co2   1  UNL1       -0.5446
      4  C2         5.2220    1.3150    0.0150 C.ar    1  UNL1        0.0094
      5  C3         6.4400    1.5260   -0.6120 C.ar    1  UNL1       -0.0522
      6  C4         7.3660    0.4430   -0.5760 C.ar    1  UNL1       -0.0611
      7  C5         7.0280   -0.7220    0.0740 C.ar    1  UNL1       -0.0610
      8  C6         5.8320   -0.8880    0.6790 C.ar    1  UNL1       -0.0490
      9  C7         4.8830    0.1760    0.6420 C.ar    1  UNL1        0.0458
     10  C8         3.5180   -0.1840    1.0510 C.2     1  UNL1        0.2489
     11  O3         3.2310   -0.4430    2.1960 O.2     1  UNL1       -0.2698
     12  N1         2.6160   -0.2400    0.0110 N.am    1  UNL1       -0.2815
     13  C9         1.2420   -0.7050    0.0950 C.ar    1  UNL1        0.0339
     14  C10        1.1510   -2.0010    0.6600 C.ar    1  UNL1       -0.0405
     15  C11       -0.0420   -2.6690    0.5610 C.ar    1  UNL1       -0.0597
     16  C12       -1.0860   -2.0940   -0.0400 C.ar    1  UNL1       -0.0581
     17  C13       -1.0290   -0.8350   -0.5880 C.ar    1  UNL1       -0.0398
     18  C14       -2.1920   -0.4210   -1.3850 C.3     1  UNL1        0.0172
     19  C15       -3.4800   -0.5440   -0.7630 C.ar    1  UNL1        0.0736
     20  N2        -3.9340   -1.8340   -0.6070 N.ar    1  UNL1       -0.1750
     21  N3        -5.0820   -2.1270   -0.0520 N.ar    1  UNL1       -0.2425
     22  C16       -5.9240   -1.1920    0.4030 C.ar    1  UNL1        0.2725
     23  O4        -7.0290   -1.4570    0.9260 O.2     1  UNL1       -0.2658
     24  C17       -5.5330    0.1460    0.2780 C.ar    1  UNL1        0.0496
     25  C18       -6.4180    1.1470    0.6930 C.ar    1  UNL1       -0.0487
     26  C19       -6.0570    2.4660    0.5220 C.ar    1  UNL1       -0.0610
     27  C20       -4.8190    2.7340   -0.0630 C.ar    1  UNL1       -0.0611
     28  C21       -3.9570    1.7590   -0.4770 C.ar    1  UNL1       -0.0521
     29  C22       -4.3140    0.4180   -0.3060 C.ar    1  UNL1        0.0106
     30  C23        0.1890   -0.1400   -0.4970 C.ar    1  UNL1       -0.0369
     31 H           6.6642    2.4184   -1.0793 H       1  UNL1        0.0624
     32 H           8.2858    0.5321   -1.0353 H       1  UNL1        0.0618
     33 H           7.7115   -1.4948    0.1000 H       1  UNL1        0.0618
     34 H           5.6079   -1.7724    1.1613 H       1  UNL1        0.0625
     35 H           2.9318    0.0632   -0.8708 H       1  UNL1        0.1551
     36 H           1.9611   -2.4307    1.1334 H       1  UNL1        0.0636
     37 H          -0.1332   -3.6195    0.9524 H       1  UNL1        0.0618
     38 H          -1.9738   -2.6172   -0.0955 H       1  UNL1        0.0620
     39 H          -2.2037   -1.0164   -2.2740 H       1  UNL1        0.0377
     40 H          -2.0596    0.6280   -1.5495 H       1  UNL1        0.0377
     41 H          -5.3367   -3.0741    0.0344 H       1  UNL1        0.1921
     42 H          -7.3252    0.9020    1.1197 H       1  UNL1        0.0625
     43 H          -6.6828    3.2316    0.8174 H       1  UNL1        0.0618
     44 H          -4.5404    3.7196   -0.1893 H       1  UNL1        0.0618
     45 H          -3.0542    2.0086   -0.9102 H       1  UNL1        0.0624
     46 H           0.2689    0.8110   -0.8897 H       1  UNL1        0.0639
@<TRIPOS>UNITY_ATOM_ATTR
3 1
charge -1
@<TRIPOS>BOND
     1     1     2   ar
     2     2     3   ar
     3     2     4    1
     4     4     5   ar
     5     4     9   ar
     6     5     6   ar
     7     6     7   ar
     8     7     8   ar
     9     8     9   ar
    10     9    10    1
    11    10    11    2
    12    10    12   am
    13    12    13    1
    14    13    14   ar
    15    13    30   ar
    16    14    15   ar
    17    15    16   ar
    18    16    17   ar
    19    17    18    1
    20    17    30   ar
    21    18    19    1
    22    19    20   ar
    23    19    29   ar
    24    20    21   ar
    25    21    22   ar
    26    22    23    2
    27    22    24   ar
    28    24    25   ar
    29    24    29   ar
    30    25    26   ar
    31    26    27   ar
    32    27    28   ar
    33    28    29   ar
    34     5    31    1
    35     6    32    1
    36     7    33    1
    37     8    34    1
    38    12    35    1
    39    14    36    1
    40    15    37    1
    41    16    38    1
    42    18    39    1
    43    18    40    1
    44    21    41    1
    45    25    42    1
    46    26    43    1
    47    27    44    1
    48    28    45    1
    49    30    46    1
@<TRIPOS>MOLECULE
../data/bude_mols_rdkit_confs_charged/molecule_81.pdb
 46 49 0 0 0
SMALL
GASTEIGER

@<TRIPOS>ATOM
      1  O1         5.1760    2.4050    1.5660 O.co2   1  UNL1       -0.5446
      2  C1         5.3250    1.2480    1.8900 C.2     1  UNL1        0.0724
      3  O2         5.1200    0.7850    3.2080 O.co2   1  UNL1       -0.5446
      4  C2         5.6120    0.2490    0.8750 C.ar    1  UNL1        0.0094
      5  C3         6.9330   -0.2560    0.9170 C.ar    1  UNL1       -0.0522
      6  C4         7.2900   -1.2660    0.0560 C.ar    1  UNL1       -0.0611
      7  C5         6.3430   -1.7680   -0.8180 C.ar    1  UNL1       -0.0610
      8  C6         5.0640   -1.2640   -0.8660 C.ar    1  UNL1       -0.0490
      9  C7         4.6960   -0.2230    0.0070 C.ar    1  UNL1        0.0458
     10  C8         3.3100    0.2700   -0.1460 C.2     1  UNL1        0.2489
     11  O3         2.8980    0.7580   -1.2540 O.2     1  UNL1       -0.2698
     12  N1         2.3950    0.1950    0.8950 N.am    1  UNL1       -0.2815
     13  C9         0.9970    0.4860    0.8240 C.ar    1  UNL1        0.0339
     14  C10        0.2940    1.0600    1.8140 C.ar    1  UNL1       -0.0405
     15  C11       -1.0370    1.0130    1.9400 C.ar    1  UNL1       -0.0597
     16  C12       -1.7450    0.3340    0.9280 C.ar    1  UNL1       -0.0581
     17  C13       -1.0890   -0.2630   -0.1210 C.ar    1  UNL1       -0.0398
     18  C14       -1.8660   -0.7950   -1.3520 C.3     1  UNL1        0.0172
     19  C15       -2.9290    0.3320   -1.4290 C.ar    1  UNL1        0.0736
     20  N2        -2.4630    1.5810   -1.1850 N.ar    1  UNL1       -0.1750
     21  N3        -3.3250    2.4370   -0.5780 N.ar    1  UNL1       -0.2425
     22  C16       -4.5060    2.0480   -0.2760 C.ar    1  UNL1        0.2725
     23  O4        -5.3380    2.9240    0.3190 O.2     1  UNL1       -0.2658
     24  C17       -5.0830    0.8400   -0.5020 C.ar    1  UNL1        0.0496
     25  C18       -6.3760    0.4840   -0.2470 C.ar    1  UNL1       -0.0487
     26  C19       -6.7660   -0.8080   -0.6410 C.ar    1  UNL1       -0.0610
     27  C20       -5.9210   -1.6710   -1.2850 C.ar    1  UNL1       -0.0611
     28  C21       -4.6280   -1.2920   -1.5510 C.ar    1  UNL1       -0.0521
     29  C22       -4.1860   -0.0820   -1.1510 C.ar    1  UNL1        0.0106
     30  C23        0.2710   -0.1960   -0.1630 C.ar    1  UNL1       -0.0369
     31 H           7.6191    0.1288    1.5850 H       1  UNL1        0.0624
     32 H           8.2502   -1.6441    0.0616 H       1  UNL1        0.0618
     33 H           6.6027   -2.5409   -1.4507 H       1  UNL1        0.0618
     34 H           4.3794   -1.6462   -1.5370 H       1  UNL1        0.0625
     35 H           2.7441   -0.0872    1.7712 H       1  UNL1        0.1551
     36 H           0.8219    1.5778    2.5338 H       1  UNL1        0.0636
     37 H          -1.5213    1.4521    2.7385 H       1  UNL1        0.0618
     38 H          -2.7747    0.2844    0.9759 H       1  UNL1        0.0620
     39 H          -2.3034   -1.7550   -1.1730 H       1  UNL1        0.0377
     40 H          -1.2901   -0.9628   -2.2380 H       1  UNL1        0.0377
     41 H          -3.0413    3.3566   -0.3704 H       1  UNL1        0.1921
     42 H          -7.0350    1.1317    0.2126 H       1  UNL1        0.0625
     43 H          -7.7287   -1.1184   -0.4363 H       1  UNL1        0.0618
     44 H          -6.2549   -2.6049   -1.5702 H       1  UNL1        0.0618
     45 H          -3.9955   -1.9321   -2.0562 H       1  UNL1        0.0624
     46 H           0.7767   -0.6560   -0.9361 H       1  UNL1        0.0639
@<TRIPOS>UNITY_ATOM_ATTR
3 1
charge -1
@<TRIPOS>BOND
     1     1     2   ar
     2     2     3   ar
     3     2     4    1
     4     4     5   ar
     5     4     9   ar
     6     5     6   ar
     7     6     7   ar
     8     7     8   ar
     9     8     9   ar
    10     9    10    1
    11    10    11    2
    12    10    12   am
    13    12    13    1
    14    13    14   ar
    15    13    30   ar
    16    14    15   ar
    17    15    16   ar
    18    16    17   ar
    19    17    18    1
    20    17    30   ar
    21    18    19    1
    22    19    20   ar
    23    19    29   ar
    24    20    21   ar
    25    21    22   ar
    26    22    23    2
    27    22    24   ar
    28    24    25   ar
    29    24    29   ar
    30    25    26   ar
    31    26    27   ar
    32    27    28   ar
    33    28    29   ar
    34     5    31    1
    35     6    32    1
    36     7    33    1
    37     8    34    1
    38    12    35    1
    39    14    36    1
    40    15    37    1
    41    16    38    1
    42    18    39    1
    43    18    40    1
    44    21    41    1
    45    25    42    1
    46    26    43    1
    47    27    44    1
    48    28    45    1
    49    30    46    1
@<TRIPOS>MOLECULE
../data/bude_mols_rdkit_confs_charged/molecule_81.pdb
 46 49 0 0 0
SMALL
GASTEIGER

@<TRIPOS>ATOM
      1  O1         5.0020   -3.5710   -1.0410 O.co2   1  UNL1       -0.5446
      2  C1         4.6440   -2.6570   -0.2150 C.2     1  UNL1        0.0724
      3  O2         3.5170   -2.9210    0.5320 O.co2   1  UNL1       -0.5446
      4  C2         5.4190   -1.4300   -0.1020 C.ar    1  UNL1        0.0094
      5  C3         6.7700   -1.5970    0.1390 C.ar    1  UNL1       -0.0522
      6  C4         7.5900   -0.4620    0.1480 C.ar    1  UNL1       -0.0611
      7  C5         7.0540    0.7600   -0.0780 C.ar    1  UNL1       -0.0610
      8  C6         5.6790    0.8820   -0.3140 C.ar    1  UNL1       -0.0490
      9  C7         4.8660   -0.2030   -0.3240 C.ar    1  UNL1        0.0458
     10  C8         3.3990   -0.0650   -0.4440 C.2     1  UNL1        0.2489
     11  O3         2.7450   -0.6530   -1.3100 O.2     1  UNL1       -0.2698
     12  N1         2.7000    0.7700    0.4900 N.am    1  UNL1       -0.2815
     13  C9         1.3280    1.0110    0.6000 C.ar    1  UNL1        0.0339
     14  C10        0.9320    1.8530    1.6600 C.ar    1  UNL1       -0.0405
     15  C11       -0.4060    2.0870    1.8670 C.ar    1  UNL1       -0.0597
     16  C12       -1.3790    1.5290    1.0640 C.ar    1  UNL1       -0.0581
     17  C13       -1.0570    0.7140    0.0190 C.ar    1  UNL1       -0.0398
     18  C14       -1.9980    0.1190   -0.9770 C.3     1  UNL1        0.0172
     19  C15       -3.1550   -0.6030   -0.5260 C.ar    1  UNL1        0.0736
     20  N2        -3.0890   -1.9340   -0.2950 N.ar    1  UNL1       -0.1750
     21  N3        -4.0660   -2.6700    0.1350 N.ar    1  UNL1       -0.2425
     22  C16       -5.2680   -2.1560    0.3930 C.ar    1  UNL1        0.2725
     23  O4        -6.2580   -2.8040    0.8110 O.2     1  UNL1       -0.2658
     24  C17       -5.4780   -0.7870    0.1940 C.ar    1  UNL1        0.0496
     25  C18       -6.7190   -0.2350    0.3860 C.ar    1  UNL1       -0.0487
     26  C19       -6.9260    1.1090    0.1200 C.ar    1  UNL1       -0.0610
     27  C20       -5.8630    1.8500   -0.3350 C.ar    1  UNL1       -0.0611
     28  C21       -4.6160    1.3070   -0.5320 C.ar    1  UNL1       -0.0521
     29  C22       -4.4200   -0.0420   -0.2630 C.ar    1  UNL1        0.0106
     30  C23        0.3330    0.4900   -0.1580 C.ar    1  UNL1       -0.0369
     31 H           7.1646   -2.5354    0.3082 H       1  UNL1        0.0624
     32 H           8.6019   -0.5572    0.3268 H       1  UNL1        0.0618
     33 H           7.6559    1.5983   -0.0764 H       1  UNL1        0.0618
     34 H           5.2763    1.8169   -0.4838 H       1  UNL1        0.0625
     35 H           3.2661    1.2387    1.1450 H       1  UNL1        0.1551
     36 H           1.6390    2.2883    2.2730 H       1  UNL1        0.0636
     37 H          -0.6918    2.6990    2.6472 H       1  UNL1        0.0618
     38 H          -2.3719    1.7326    1.2582 H       1  UNL1        0.0620
     39 H          -1.4260   -0.5571   -1.5776 H       1  UNL1        0.0377
     40 H          -2.4154    0.9750   -1.4647 H       1  UNL1        0.0377
     41 H          -3.9160   -3.6330    0.2744 H       1  UNL1        0.1921
     42 H          -7.4974   -0.8199    0.7281 H       1  UNL1        0.0625
     43 H          -7.8528    1.5410    0.2598 H       1  UNL1        0.0618
     44 H          -6.0060    2.8520   -0.5365 H       1  UNL1        0.0618
     45 H          -3.8376    1.8918   -0.8742 H       1  UNL1        0.0624
     46 H           0.6121   -0.1272   -0.9366 H       1  UNL1        0.0639
@<TRIPOS>UNITY_ATOM_ATTR
3 1
charge -1
@<TRIPOS>BOND
     1     1     2   ar
     2     2     3   ar
     3     2     4    1
     4     4     5   ar
     5     4     9   ar
     6     5     6   ar
     7     6     7   ar
     8     7     8   ar
     9     8     9   ar
    10     9    10    1
    11    10    11    2
    12    10    12   am
    13    12    13    1
    14    13    14   ar
    15    13    30   ar
    16    14    15   ar
    17    15    16   ar
    18    16    17   ar
    19    17    18    1
    20    17    30   ar
    21    18    19    1
    22    19    20   ar
    23    19    29   ar
    24    20    21   ar
    25    21    22   ar
    26    22    23    2
    27    22    24   ar
    28    24    25   ar
    29    24    29   ar
    30    25    26   ar
    31    26    27   ar
    32    27    28   ar
    33    28    29   ar
    34     5    31    1
    35     6    32    1
    36     7    33    1
    37     8    34    1
    38    12    35    1
    39    14    36    1
    40    15    37    1
    41    16    38    1
    42    18    39    1
    43    18    40    1
    44    21    41    1
    45    25    42    1
    46    26    43    1
    47    27    44    1
    48    28    45    1
    49    30    46    1
@<TRIPOS>MOLECULE
../data/bude_mols_rdkit_confs_charged/molecule_81.pdb
 46 49 0 0 0
SMALL
GASTEIGER

@<TRIPOS>ATOM
      1  O1         4.9350   -1.5480   -1.9900 O.co2   1  UNL1       -0.5446
      2  C1         5.5070   -1.2640   -0.9410 C.2     1  UNL1        0.0724
      3  O2         5.9550   -2.3660   -0.1480 O.co2   1  UNL1       -0.5446
      4  C2         5.7880    0.0750   -0.3990 C.ar    1  UNL1        0.0094
      5  C3         6.9760    0.4190    0.2010 C.ar    1  UNL1       -0.0522
      6  C4         7.1410    1.6160    0.8910 C.ar    1  UNL1       -0.0611
      7  C5         6.0880    2.4690    0.9880 C.ar    1  UNL1       -0.0610
      8  C6         4.8610    2.1530    0.3810 C.ar    1  UNL1       -0.0490
      9  C7         4.7430    1.0090   -0.2830 C.ar    1  UNL1        0.0458
     10  C8         3.5330    0.5490   -1.0060 C.2     1  UNL1        0.2489
     11  O3         3.4890    0.5910   -2.2930 O.2     1  UNL1       -0.2698
     12  N1         2.4970    0.1360   -0.2930 N.am    1  UNL1       -0.2815
     13  C9         1.2220   -0.4240   -0.4490 C.ar    1  UNL1        0.0339
     14  C10        1.1450   -1.6500    0.2790 C.ar    1  UNL1       -0.0405
     15  C11       -0.0490   -2.2690    0.4340 C.ar    1  UNL1       -0.0597
     16  C12       -1.2320   -1.7440   -0.0860 C.ar    1  UNL1       -0.0581
     17  C13       -1.1440   -0.5490   -0.7730 C.ar    1  UNL1       -0.0398
     18  C14       -2.3670    0.0120   -1.4660 C.3     1  UNL1        0.0172
     19  C15       -3.5750   -0.5060   -0.8570 C.ar    1  UNL1        0.0736
     20  N2        -3.7820   -1.8220   -0.9070 N.ar    1  UNL1       -0.1750
     21  N3        -4.7100   -2.4820   -0.2780 N.ar    1  UNL1       -0.2425
     22  C16       -5.5730   -1.8640    0.5220 C.ar    1  UNL1        0.2725
     23  O4        -6.4800   -2.3960    1.1930 O.2     1  UNL1       -0.2658
     24  C17       -5.4660   -0.4970    0.6690 C.ar    1  UNL1        0.0496
     25  C18       -6.3050    0.2880    1.4350 C.ar    1  UNL1       -0.0487
     26  C19       -6.2000    1.6320    1.5400 C.ar    1  UNL1       -0.0610
     27  C20       -5.2150    2.2850    0.8490 C.ar    1  UNL1       -0.0611
     28  C21       -4.3330    1.5640    0.0530 C.ar    1  UNL1       -0.0521
     29  C22       -4.4550    0.1880   -0.0210 C.ar    1  UNL1        0.0106
     30  C23        0.0890    0.0820   -0.9440 C.ar    1  UNL1       -0.0369
     31 H           7.7732   -0.2332    0.1375 H       1  UNL1        0.0624
     32 H           8.0485    1.8520    1.3221 H       1  UNL1        0.0618
     33 H           6.1899    3.3533    1.5101 H       1  UNL1        0.0618
     34 H           4.0614    2.8018    0.4503 H       1  UNL1        0.0625
     35 H           2.6845    0.2651    0.6648 H       1  UNL1        0.1551
     36 H           1.9982   -2.0636    0.6864 H       1  UNL1        0.0636
     37 H          -0.0851   -3.1594    0.9545 H       1  UNL1        0.0618
     38 H          -2.1350   -2.2281    0.0374 H       1  UNL1        0.0620
     39 H          -2.3456   -0.2664   -2.4989 H       1  UNL1        0.0377
     40 H          -2.3607    1.0779   -1.3721 H       1  UNL1        0.0377
     41 H          -4.7742   -3.4572   -0.3967 H       1  UNL1        0.1921
     42 H          -7.0596   -0.1806    1.9604 H       1  UNL1        0.0625
     43 H          -6.8564    2.1607    2.1356 H       1  UNL1        0.0618
     44 H          -5.1276    3.3109    0.9191 H       1  UNL1        0.0618
     45 H          -3.5939    2.0506   -0.4780 H       1  UNL1        0.0624
     46 H           0.1268    0.9689   -1.4703 H       1  UNL1        0.0639
@<TRIPOS>UNITY_ATOM_ATTR
3 1
charge -1
@<TRIPOS>BOND
     1     1     2   ar
     2     2     3   ar
     3     2     4    1
     4     4     5   ar
     5     4     9   ar
     6     5     6   ar
     7     6     7   ar
     8     7     8   ar
     9     8     9   ar
    10     9    10    1
    11    10    11    2
    12    10    12   am
    13    12    13    1
    14    13    14   ar
    15    13    30   ar
    16    14    15   ar
    17    15    16   ar
    18    16    17   ar
    19    17    18    1
    20    17    30   ar
    21    18    19    1
    22    19    20   ar
    23    19    29   ar
    24    20    21   ar
    25    21    22   ar
    26    22    23    2
    27    22    24   ar
    28    24    25   ar
    29    24    29   ar
    30    25    26   ar
    31    26    27   ar
    32    27    28   ar
    33    28    29   ar
    34     5    31    1
    35     6    32    1
    36     7    33    1
    37     8    34    1
    38    12    35    1
    39    14    36    1
    40    15    37    1
    41    16    38    1
    42    18    39    1
    43    18    40    1
    44    21    41    1
    45    25    42    1
    46    26    43    1
    47    27    44    1
    48    28    45    1
    49    30    46    1
@<TRIPOS>MOLECULE
../data/bude_mols_rdkit_confs_charged/molecule_81.pdb
 46 49 0 0 0
SMALL
GASTEIGER

@<TRIPOS>ATOM
      1  O1        -6.2220   -2.3400   -1.4580 O.co2   1  UNL1       -0.5446
      2  C1        -5.6780   -1.2300   -1.6020 C.2     1  UNL1        0.0724
      3  O2        -4.7550   -1.0640   -2.6150 O.co2   1  UNL1       -0.5446
      4  C2        -5.9930   -0.1060   -0.7680 C.ar    1  UNL1        0.0094
      5  C3        -7.2560    0.5280   -0.9130 C.ar    1  UNL1       -0.0522
      6  C4        -7.5660    1.6640   -0.1980 C.ar    1  UNL1       -0.0611
      7  C5        -6.6320    2.1890    0.6770 C.ar    1  UNL1       -0.0610
      8  C6        -5.4570    1.5860    0.8060 C.ar    1  UNL1       -0.0490
      9  C7        -5.0830    0.3850    0.0720 C.ar    1  UNL1        0.0458
     10  C8        -3.7660   -0.0130    0.4890 C.2     1  UNL1        0.2489
     11  O3        -3.7680   -0.5360    1.7120 O.2     1  UNL1       -0.2698
     12  N1        -2.5430    0.0690   -0.1070 N.am    1  UNL1       -0.2815
     13  C9        -1.3100   -0.2470    0.6330 C.ar    1  UNL1        0.0339
     14  C10       -1.3150   -0.3800    1.9900 C.ar    1  UNL1       -0.0405
     15  C11       -0.0580   -0.4160    2.6630 C.ar    1  UNL1       -0.0597
     16  C12        1.0950   -0.3060    1.9230 C.ar    1  UNL1       -0.0581
     17  C13        1.0800   -0.1890    0.5500 C.ar    1  UNL1       -0.0398
     18  C14        2.3110    0.1810   -0.1880 C.3     1  UNL1        0.0172
     19  C15        3.3640   -0.8230   -0.3390 C.ar    1  UNL1        0.0736
     20  N2         3.2800   -2.1250   -0.2840 N.ar    1  UNL1       -0.1750
     21  N3         4.4060   -2.8530   -0.3870 N.ar    1  UNL1       -0.2425
     22  C16        5.6070   -2.3730   -0.5360 C.ar    1  UNL1        0.2725
     23  O4         6.6410   -3.0600   -0.6270 O.2     1  UNL1       -0.2658
     24  C17        5.7960   -0.9490   -0.6210 C.ar    1  UNL1        0.0496
     25  C18        7.0170   -0.3960   -0.8390 C.ar    1  UNL1       -0.0487
     26  C19        7.1250    0.9630   -0.9350 C.ar    1  UNL1       -0.0610
     27  C20        6.0200    1.7540   -0.8260 C.ar    1  UNL1       -0.0611
     28  C21        4.7970    1.1480   -0.6130 C.ar    1  UNL1       -0.0521
     29  C22        4.6490   -0.2220   -0.5120 C.ar    1  UNL1        0.0106
     30  C23       -0.1370   -0.1780   -0.0440 C.ar    1  UNL1       -0.0369
     31 H          -7.9519    0.1315   -1.5639 H       1  UNL1        0.0624
     32 H          -8.4852    2.1185   -0.3139 H       1  UNL1        0.0618
     33 H          -6.8462    3.0385    1.2223 H       1  UNL1        0.0618
     34 H          -4.7707    1.9902    1.4623 H       1  UNL1        0.0625
     35 H          -2.4829    0.3448   -1.0502 H       1  UNL1        0.1551
     36 H          -2.2011   -0.4524    2.5140 H       1  UNL1        0.0636
     37 H          -0.0149   -0.5229    3.6885 H       1  UNL1        0.0618
     38 H           2.0035   -0.3112    2.4126 H       1  UNL1        0.0620
     39 H           2.7434    1.0181    0.3191 H       1  UNL1        0.0377
     40 H           1.9732    0.3579   -1.1878 H       1  UNL1        0.0377
     41 H           4.3143   -3.8324   -0.3463 H       1  UNL1        0.1921
     42 H           7.8528   -0.9944   -0.9310 H       1  UNL1        0.0625
     43 H           8.0498    1.3936   -1.0911 H       1  UNL1        0.0618
     44 H           6.0953    2.7805   -0.9008 H       1  UNL1        0.0618
     45 H           3.9587    1.7436   -0.5257 H       1  UNL1        0.0624
     46 H          -0.1739   -0.1132   -1.0733 H       1  UNL1        0.0639
@<TRIPOS>UNITY_ATOM_ATTR
3 1
charge -1
@<TRIPOS>BOND
     1     1     2   ar
     2     2     3   ar
     3     2     4    1
     4     4     5   ar
     5     4     9   ar
     6     5     6   ar
     7     6     7   ar
     8     7     8   ar
     9     8     9   ar
    10     9    10    1
    11    10    11    2
    12    10    12   am
    13    12    13    1
    14    13    14   ar
    15    13    30   ar
    16    14    15   ar
    17    15    16   ar
    18    16    17   ar
    19    17    18    1
    20    17    30   ar
    21    18    19    1
    22    19    20   ar
    23    19    29   ar
    24    20    21   ar
    25    21    22   ar
    26    22    23    2
    27    22    24   ar
    28    24    25   ar
    29    24    29   ar
    30    25    26   ar
    31    26    27   ar
    32    27    28   ar
    33    28    29   ar
    34     5    31    1
    35     6    32    1
    36     7    33    1
    37     8    34    1
    38    12    35    1
    39    14    36    1
    40    15    37    1
    41    16    38    1
    42    18    39    1
    43    18    40    1
    44    21    41    1
    45    25    42    1
    46    26    43    1
    47    27    44    1
    48    28    45    1
    49    30    46    1
@<TRIPOS>MOLECULE
../data/bude_mols_rdkit_confs_charged/molecule_81.pdb
 46 49 0 0 0
SMALL
GASTEIGER

@<TRIPOS>ATOM
      1  O1        -4.6380   -1.4120    2.6430 O.co2   1  UNL1       -0.5446
      2  C1        -4.6580   -0.2510    2.0740 C.2     1  UNL1        0.0724
      3  O2        -3.9780    0.7560    2.6510 O.co2   1  UNL1       -0.5446
      4  C2        -5.4550   -0.1380    0.8600 C.ar    1  UNL1        0.0094
      5  C3        -6.8580   -0.1390    1.0980 C.ar    1  UNL1       -0.0522
      6  C4        -7.7550    0.0160    0.0950 C.ar    1  UNL1       -0.0611
      7  C5        -7.2470    0.1710   -1.1820 C.ar    1  UNL1       -0.0610
      8  C6        -5.9010    0.1750   -1.4140 C.ar    1  UNL1       -0.0490
      9  C7        -4.9870    0.0220   -0.3530 C.ar    1  UNL1        0.0458
     10  C8        -3.5880    0.0580   -0.6680 C.2     1  UNL1        0.2489
     11  O3        -3.2810    0.5520   -1.8490 O.2     1  UNL1       -0.2698
     12  N1        -2.4940   -0.3450    0.1060 N.am    1  UNL1       -0.2815
     13  C9        -1.1520   -0.1370   -0.3280 C.ar    1  UNL1        0.0339
     14  C10       -0.8910    0.8840   -1.1680 C.ar    1  UNL1       -0.0405
     15  C11        0.4110    1.1820   -1.6080 C.ar    1  UNL1       -0.0597
     16  C12        1.4380    0.4080   -1.1900 C.ar    1  UNL1       -0.0581
     17  C13        1.2260   -0.6660   -0.3270 C.ar    1  UNL1       -0.0398
     18  C14        2.2730   -1.4740    0.2740 C.3     1  UNL1        0.0172
     19  C15        3.6370   -1.2860   -0.1400 C.ar    1  UNL1        0.0736
     20  N2         4.3280   -2.2070   -0.8780 N.ar    1  UNL1       -0.1750
     21  N3         5.5690   -2.0800   -1.2580 N.ar    1  UNL1       -0.2425
     22  C16        6.2960   -1.0110   -0.9480 C.ar    1  UNL1        0.2725
     23  O4         7.5000   -0.8840   -1.3240 O.2     1  UNL1       -0.2658
     24  C17        5.6860   -0.0210   -0.1950 C.ar    1  UNL1        0.0496
     25  C18        6.4180    1.1040    0.1210 C.ar    1  UNL1       -0.0487
     26  C19        5.7920    2.1000    0.8530 C.ar    1  UNL1       -0.0610
     27  C20        4.4790    1.9850    1.2560 C.ar    1  UNL1       -0.0611
     28  C21        3.7340    0.8510    0.9430 C.ar    1  UNL1       -0.0521
     29  C22        4.3840   -0.1310    0.2100 C.ar    1  UNL1        0.0106
     30  C23       -0.0930   -0.9110    0.0930 C.ar    1  UNL1       -0.0369
     31 H          -7.2022   -0.2614    2.0632 H       1  UNL1        0.0624
     32 H          -8.7711    0.0183    0.2754 H       1  UNL1        0.0618
     33 H          -7.8975    0.2859   -1.9749 H       1  UNL1        0.0618
     34 H          -5.5496    0.2914   -2.3773 H       1  UNL1        0.0625
     35 H          -2.6552   -0.7835    0.9726 H       1  UNL1        0.1551
     36 H          -1.6744    1.4679   -1.5002 H       1  UNL1        0.0636
     37 H           0.5802    1.9796   -2.2406 H       1  UNL1        0.0618
     38 H           2.3950    0.6159   -1.5154 H       1  UNL1        0.0620
     39 H           2.0269   -2.4971    0.0799 H       1  UNL1        0.0377
     40 H           2.2754   -1.1620    1.2975 H       1  UNL1        0.0377
     41 H           5.9804   -2.7982   -1.7911 H       1  UNL1        0.1921
     42 H           7.4009    1.2010   -0.1782 H       1  UNL1        0.0625
     43 H           6.3222    2.9494    1.1028 H       1  UNL1        0.0618
     44 H           4.0428    2.7485    1.7962 H       1  UNL1        0.0618
     45 H           2.7513    0.7468    1.2403 H       1  UNL1        0.0624
     46 H          -0.2739   -1.6963    0.7377 H       1  UNL1        0.0639
@<TRIPOS>UNITY_ATOM_ATTR
3 1
charge -1
@<TRIPOS>BOND
     1     1     2   ar
     2     2     3   ar
     3     2     4    1
     4     4     5   ar
     5     4     9   ar
     6     5     6   ar
     7     6     7   ar
     8     7     8   ar
     9     8     9   ar
    10     9    10    1
    11    10    11    2
    12    10    12   am
    13    12    13    1
    14    13    14   ar
    15    13    30   ar
    16    14    15   ar
    17    15    16   ar
    18    16    17   ar
    19    17    18    1
    20    17    30   ar
    21    18    19    1
    22    19    20   ar
    23    19    29   ar
    24    20    21   ar
    25    21    22   ar
    26    22    23    2
    27    22    24   ar
    28    24    25   ar
    29    24    29   ar
    30    25    26   ar
    31    26    27   ar
    32    27    28   ar
    33    28    29   ar
    34     5    31    1
    35     6    32    1
    36     7    33    1
    37     8    34    1
    38    12    35    1
    39    14    36    1
    40    15    37    1
    41    16    38    1
    42    18    39    1
    43    18    40    1
    44    21    41    1
    45    25    42    1
    46    26    43    1
    47    27    44    1
    48    28    45    1
    49    30    46    1
