@<TRIPOS>MOLECULE
../data/bude_mols_rdkit_confs_charged/molecule_93.pdb
 36 38 0 0 0
SMALL
GASTEIGER

@<TRIPOS>ATOM
      1  N1        -5.3420   -1.0750   -0.8330 N.am    1  UNL1       -0.3129
      2  C1        -4.0360   -0.9880   -0.2820 C.2     1  UNL1        0.3039
      3  O1        -3.5340   -1.9840    0.3180 O.2     1  UNL1       -0.2525
      4  N2        -3.3250    0.2290   -0.4220 N.am    1  UNL1       -0.2552
      5  C2        -3.7720    1.4410   -1.0780 C.3     1  UNL1        0.0253
      6  C3        -2.4790    2.0100   -1.5910 C.3     1  UNL1       -0.0096
      7  C4        -1.4730    1.5660   -0.6120 C.ar    1  UNL1       -0.0245
      8  C5        -0.1890    1.9940   -0.2810 C.ar    1  UNL1       -0.0579
      9  C6         0.4950    1.3360    0.7050 C.ar    1  UNL1       -0.0758
     10  C7        -0.0170    0.2560    1.4030 C.ar    1  UNL1       -0.1274
     11  N3         0.7600   -0.3720    2.4140 N.pl3   1  UNL1       -0.5366
     12  S1         1.8110   -1.6880    2.0190 S.O2    1  UNL1       -0.0533
     13  O2         0.9570   -2.7130    1.2980 O.2     1  UNL1       -0.1840
     14  O3         2.3810   -2.3320    3.2250 O.2     1  UNL1       -0.1840
     15  C8         3.0340   -1.1610    0.8840 C.ar    1  UNL1        0.1486
     16  C9         2.8460   -1.2320   -0.4730 C.ar    1  UNL1        0.1875
     17  F1         1.6790   -1.7250   -0.9410 F       1  UNL1       -0.2003
     18  C10        3.7930   -0.8230   -1.3990 C.ar    1  UNL1        0.1982
     19  F2         3.5800   -0.9050   -2.7390 F       1  UNL1       -0.1993
     20  C11        4.9880   -0.3170   -0.9250 C.ar    1  UNL1        0.1992
     21  F3         5.9220    0.0860   -1.8230 F       1  UNL1       -0.1993
     22  C12        5.2040   -0.2340    0.4400 C.ar    1  UNL1        0.1982
     23  F4         6.3730    0.2600    0.9050 F       1  UNL1       -0.1993
     24  C13        4.2490   -0.6470    1.3360 C.ar    1  UNL1        0.1875
     25  F5         4.4250   -0.5800    2.6920 F       1  UNL1       -0.2003
     26  C14       -1.2900   -0.1660    1.0730 C.ar    1  UNL1       -0.0543
     27  C15       -1.9980    0.4950    0.0720 C.ar    1  UNL1        0.0398
     28 H          -5.8570   -1.9098   -0.7492 H       1  UNL1        0.1465
     29 H          -5.7323   -0.3005   -1.2988 H       1  UNL1        0.1465
     30 H          -4.2431    2.1073   -0.3858 H       1  UNL1        0.0472
     31 H          -4.5044    1.2754   -1.8403 H       1  UNL1        0.0472
     32 H          -2.5241    3.0783   -1.6304 H       1  UNL1        0.0329
     33 H          -2.2543    1.6837   -2.5850 H       1  UNL1        0.0329
     34 H           0.2394    2.7945   -0.7716 H       1  UNL1        0.0621
     35 H           1.4449    1.6631    0.9411 H       1  UNL1        0.0606
     36 H          -1.7146   -0.9672    1.5657 H       1  UNL1        0.0624
@<TRIPOS>UNITY_ATOM_ATTR
11 1
charge -1
@<TRIPOS>BOND
     1     1     2   am
     2     2     3    2
     3     2     4   am
     4     4     5    1
     5     4    27    1
     6     5     6    1
     7     6     7    1
     8     7     8   ar
     9     7    27   ar
    10     8     9   ar
    11     9    10   ar
    12    10    11    1
    13    10    26   ar
    14    11    12    1
    15    12    13    2
    16    12    14    2
    17    12    15    1
    18    15    16   ar
    19    15    24   ar
    20    16    17    1
    21    16    18   ar
    22    18    19    1
    23    18    20   ar
    24    20    21    1
    25    20    22   ar
    26    22    23    1
    27    22    24   ar
    28    24    25    1
    29    26    27   ar
    30     1    28    1
    31     1    29    1
    32     5    30    1
    33     5    31    1
    34     6    32    1
    35     6    33    1
    36     8    34    1
    37     9    35    1
    38    26    36    1
@<TRIPOS>MOLECULE
../data/bude_mols_rdkit_confs_charged/molecule_93.pdb
 36 38 0 0 0
SMALL
GASTEIGER

@<TRIPOS>ATOM
      1  N1        -2.8990    3.1580   -0.6750 N.am    1  UNL1       -0.3129
      2  C1        -2.0760    2.1540   -0.1190 C.2     1  UNL1        0.3039
      3  O1        -1.1010    2.5170    0.5860 O.2     1  UNL1       -0.2525
      4  N2        -2.3830    0.7920   -0.3790 N.am    1  UNL1       -0.2552
      5  C2        -3.4920    0.3330   -1.1830 C.3     1  UNL1        0.0253
      6  C3        -3.4400   -1.1740   -1.1860 C.3     1  UNL1       -0.0096
      7  C4        -2.2730   -1.5260   -0.3690 C.ar    1  UNL1       -0.0245
      8  C5        -1.7770   -2.7830   -0.0530 C.ar    1  UNL1       -0.0579
      9  C6        -0.6480   -2.8500    0.7450 C.ar    1  UNL1       -0.0758
     10  C7        -0.0580   -1.6860    1.1970 C.ar    1  UNL1       -0.1274
     11  N3         1.1050   -1.7680    2.0200 N.pl3   1  UNL1       -0.5366
     12  S1         2.6690   -1.7840    1.3240 S.O2    1  UNL1       -0.0533
     13  O2         3.6970   -1.9540    2.4120 O.2     1  UNL1       -0.1840
     14  O3         2.7630   -2.9430    0.3840 O.2     1  UNL1       -0.1840
     15  C8         3.0070   -0.3220    0.4270 C.ar    1  UNL1        0.1486
     16  C9         2.7170   -0.1940   -0.9160 C.ar    1  UNL1        0.1875
     17  F1         2.1490   -1.2580   -1.5360 F       1  UNL1       -0.2003
     18  C10        2.9830    0.9590   -1.6250 C.ar    1  UNL1        0.1982
     19  F2         2.6880    1.0610   -2.9470 F       1  UNL1       -0.1993
     20  C11        3.5600    2.0440   -0.9990 C.ar    1  UNL1        0.1992
     21  F3         3.8220    3.1800   -1.6990 F       1  UNL1       -0.1993
     22  C12        3.8580    1.9340    0.3480 C.ar    1  UNL1        0.1982
     23  F4         4.4290    3.0090    0.9630 F       1  UNL1       -0.1993
     24  C13        3.5840    0.7680    1.0440 C.ar    1  UNL1        0.1875
     25  F5         3.8970    0.7180    2.3600 F       1  UNL1       -0.2003
     26  C14       -0.5720   -0.4440    0.8690 C.ar    1  UNL1       -0.0543
     27  C15       -1.6950   -0.3690    0.0750 C.ar    1  UNL1        0.0398
     28 H          -2.7007    4.1072   -0.5049 H       1  UNL1        0.1465
     29 H          -3.6711    2.9087   -1.2327 H       1  UNL1        0.1465
     30 H          -3.4010    0.7059   -2.1818 H       1  UNL1        0.0472
     31 H          -4.4221    0.6823   -0.7858 H       1  UNL1        0.0472
     32 H          -3.3232   -1.5424   -2.1838 H       1  UNL1        0.0329
     33 H          -4.3404   -1.6037   -0.7992 H       1  UNL1        0.0329
     34 H          -2.2349   -3.6397   -0.4015 H       1  UNL1        0.0621
     35 H          -0.2486   -3.7664    1.0013 H       1  UNL1        0.0606
     36 H          -0.1192    0.4163    1.2153 H       1  UNL1        0.0624
@<TRIPOS>UNITY_ATOM_ATTR
11 1
charge -1
@<TRIPOS>BOND
     1     1     2   am
     2     2     3    2
     3     2     4   am
     4     4     5    1
     5     4    27    1
     6     5     6    1
     7     6     7    1
     8     7     8   ar
     9     7    27   ar
    10     8     9   ar
    11     9    10   ar
    12    10    11    1
    13    10    26   ar
    14    11    12    1
    15    12    13    2
    16    12    14    2
    17    12    15    1
    18    15    16   ar
    19    15    24   ar
    20    16    17    1
    21    16    18   ar
    22    18    19    1
    23    18    20   ar
    24    20    21    1
    25    20    22   ar
    26    22    23    1
    27    22    24   ar
    28    24    25    1
    29    26    27   ar
    30     1    28    1
    31     1    29    1
    32     5    30    1
    33     5    31    1
    34     6    32    1
    35     6    33    1
    36     8    34    1
    37     9    35    1
    38    26    36    1
@<TRIPOS>MOLECULE
../data/bude_mols_rdkit_confs_charged/molecule_93.pdb
 36 38 0 0 0
SMALL
GASTEIGER

@<TRIPOS>ATOM
      1  N1        -0.6430    2.4560   -0.2660 N.am    1  UNL1       -0.3129
      2  C1        -2.0240    2.2550   -0.0270 C.2     1  UNL1        0.3039
      3  O1        -2.7690    3.2390    0.1730 O.2     1  UNL1       -0.2525
      4  N2        -2.5400    0.9380   -0.0200 N.am    1  UNL1       -0.2552
      5  C2        -3.9310    0.5090    0.2050 C.3     1  UNL1        0.0253
      6  C3        -3.6810   -0.7170    1.0470 C.3     1  UNL1       -0.0096
      7  C4        -2.5050   -1.3270    0.3950 C.ar    1  UNL1       -0.0245
      8  C5        -1.9890   -2.6030    0.3030 C.ar    1  UNL1       -0.0579
      9  C6        -0.8340   -2.8020   -0.4010 C.ar    1  UNL1       -0.0758
     10  C7        -0.1390   -1.7830   -1.0390 C.ar    1  UNL1       -0.1274
     11  N3         1.0640   -2.0390   -1.7630 N.pl3   1  UNL1       -0.5366
     12  S1         2.5430   -1.9380   -0.8770 S.O2    1  UNL1       -0.0533
     13  O2         3.6450   -2.4200   -1.7750 O.2     1  UNL1       -0.1840
     14  O3         2.4170   -2.9110    0.2870 O.2     1  UNL1       -0.1840
     15  C8         2.8300   -0.3680   -0.2230 C.ar    1  UNL1        0.1486
     16  C9         3.5180    0.5770   -0.9470 C.ar    1  UNL1        0.1875
     17  F1         3.9750    0.2680   -2.1910 F       1  UNL1       -0.2003
     18  C10        3.7150    1.8150   -0.3700 C.ar    1  UNL1        0.1982
     19  F2         4.3920    2.7360   -1.0900 F       1  UNL1       -0.1993
     20  C11        3.2570    2.1410    0.8900 C.ar    1  UNL1        0.1992
     21  F3         3.4800    3.3720    1.4060 F       1  UNL1       -0.1993
     22  C12        2.5690    1.1820    1.6020 C.ar    1  UNL1        0.1982
     23  F4         2.1070    1.4830    2.8480 F       1  UNL1       -0.1993
     24  C13        2.3680   -0.0580    1.0310 C.ar    1  UNL1        0.1875
     25  F5         1.6840   -1.0160    1.7350 F       1  UNL1       -0.2003
     26  C14       -0.6670   -0.5120   -0.9390 C.ar    1  UNL1       -0.0543
     27  C15       -1.8300   -0.3020   -0.2310 C.ar    1  UNL1        0.0398
     28 H          -0.2723    3.3680   -0.2733 H       1  UNL1        0.1465
     29 H          -0.0534    1.6837   -0.4249 H       1  UNL1        0.1465
     30 H          -4.4278    0.2690   -0.7118 H       1  UNL1        0.0472
     31 H          -4.5679    1.2447    0.6500 H       1  UNL1        0.0472
     32 H          -4.5214   -1.3788    1.0233 H       1  UNL1        0.0329
     33 H          -3.5243   -0.4955    2.0820 H       1  UNL1        0.0329
     34 H          -2.4677   -3.3956    0.7588 H       1  UNL1        0.0621
     35 H          -0.4584   -3.7613   -0.4615 H       1  UNL1        0.0606
     36 H          -0.1904    0.2817   -1.3949 H       1  UNL1        0.0624
@<TRIPOS>UNITY_ATOM_ATTR
11 1
charge -1
@<TRIPOS>BOND
     1     1     2   am
     2     2     3    2
     3     2     4   am
     4     4     5    1
     5     4    27    1
     6     5     6    1
     7     6     7    1
     8     7     8   ar
     9     7    27   ar
    10     8     9   ar
    11     9    10   ar
    12    10    11    1
    13    10    26   ar
    14    11    12    1
    15    12    13    2
    16    12    14    2
    17    12    15    1
    18    15    16   ar
    19    15    24   ar
    20    16    17    1
    21    16    18   ar
    22    18    19    1
    23    18    20   ar
    24    20    21    1
    25    20    22   ar
    26    22    23    1
    27    22    24   ar
    28    24    25    1
    29    26    27   ar
    30     1    28    1
    31     1    29    1
    32     5    30    1
    33     5    31    1
    34     6    32    1
    35     6    33    1
    36     8    34    1
    37     9    35    1
    38    26    36    1
@<TRIPOS>MOLECULE
../data/bude_mols_rdkit_confs_charged/molecule_93.pdb
 36 38 0 0 0
SMALL
GASTEIGER

@<TRIPOS>ATOM
      1  N1        -3.4450   -0.5100   -2.2470 N.am    1  UNL1       -0.3129
      2  C1        -4.0980   -0.9170   -1.0620 C.2     1  UNL1        0.3039
      3  O1        -5.2200   -1.4690   -1.1570 O.2     1  UNL1       -0.2525
      4  N2        -3.5110   -0.7140    0.2030 N.am    1  UNL1       -0.2552
      5  C2        -4.0030   -1.0500    1.5140 C.3     1  UNL1        0.0253
      6  C3        -2.7350   -1.4900    2.2100 C.3     1  UNL1       -0.0096
      7  C4        -1.7350   -0.5370    1.6420 C.ar    1  UNL1       -0.0245
      8  C5        -0.5140   -0.0640    2.0640 C.ar    1  UNL1       -0.0579
      9  C6         0.2040    0.8350    1.3040 C.ar    1  UNL1       -0.0758
     10  C7        -0.2660    1.3010    0.0910 C.ar    1  UNL1       -0.1274
     11  N3         0.4870    2.2280   -0.6800 N.pl3   1  UNL1       -0.5366
     12  S1         1.6360    1.7720   -1.8580 S.O2    1  UNL1       -0.0533
     13  O2         1.0230    0.9790   -2.9780 O.2     1  UNL1       -0.1840
     14  O3         2.1950    3.0490   -2.4650 O.2     1  UNL1       -0.1840
     15  C8         2.9010    0.8630   -1.0700 C.ar    1  UNL1        0.1486
     16  C9         2.8590   -0.5050   -0.9240 C.ar    1  UNL1        0.1875
     17  F1         1.7990   -1.1620   -1.4090 F       1  UNL1       -0.2003
     18  C10        3.8790   -1.2140   -0.2920 C.ar    1  UNL1        0.1982
     19  F2         3.8270   -2.5420   -0.1560 F       1  UNL1       -0.1993
     20  C11        4.9670   -0.5190    0.2030 C.ar    1  UNL1        0.1992
     21  F3         5.9470   -1.2380    0.8150 F       1  UNL1       -0.1993
     22  C12        5.0330    0.8490    0.0700 C.ar    1  UNL1        0.1982
     23  F4         6.1150    1.4820    0.5700 F       1  UNL1       -0.1993
     24  C13        4.0140    1.5310   -0.5580 C.ar    1  UNL1        0.1875
     25  F5         4.0560    2.8810   -0.7020 F       1  UNL1       -0.2003
     26  C14       -1.4940    0.8080   -0.3050 C.ar    1  UNL1       -0.0543
     27  C15       -2.2280   -0.0920    0.4400 C.ar    1  UNL1        0.0398
     28 H          -3.8721   -0.6609   -3.1211 H       1  UNL1        0.1465
     29 H          -2.5629   -0.0755   -2.1986 H       1  UNL1        0.1465
     30 H          -4.7201   -1.8430    1.4707 H       1  UNL1        0.0472
     31 H          -4.5145   -0.2491    2.0058 H       1  UNL1        0.0472
     32 H          -2.4891   -2.5033    1.9698 H       1  UNL1        0.0329
     33 H          -2.7958   -1.4721    3.2781 H       1  UNL1        0.0329
     34 H          -0.1288   -0.3876    2.9650 H       1  UNL1        0.0621
     35 H           1.1170    1.1688    1.6505 H       1  UNL1        0.0606
     36 H          -1.8829    1.1296   -1.2052 H       1  UNL1        0.0624
@<TRIPOS>UNITY_ATOM_ATTR
11 1
charge -1
@<TRIPOS>BOND
     1     1     2   am
     2     2     3    2
     3     2     4   am
     4     4     5    1
     5     4    27    1
     6     5     6    1
     7     6     7    1
     8     7     8   ar
     9     7    27   ar
    10     8     9   ar
    11     9    10   ar
    12    10    11    1
    13    10    26   ar
    14    11    12    1
    15    12    13    2
    16    12    14    2
    17    12    15    1
    18    15    16   ar
    19    15    24   ar
    20    16    17    1
    21    16    18   ar
    22    18    19    1
    23    18    20   ar
    24    20    21    1
    25    20    22   ar
    26    22    23    1
    27    22    24   ar
    28    24    25    1
    29    26    27   ar
    30     1    28    1
    31     1    29    1
    32     5    30    1
    33     5    31    1
    34     6    32    1
    35     6    33    1
    36     8    34    1
    37     9    35    1
    38    26    36    1
@<TRIPOS>MOLECULE
../data/bude_mols_rdkit_confs_charged/molecule_93.pdb
 36 38 0 0 0
SMALL
GASTEIGER

@<TRIPOS>ATOM
      1  N1        -2.5330    2.7700   -2.4550 N.am    1  UNL1       -0.3129
      2  C1        -1.8500    1.5780   -2.0900 C.2     1  UNL1        0.3039
      3  O1        -0.8930    1.2010   -2.8110 O.2     1  UNL1       -0.2525
      4  N2        -2.2400    0.8430   -0.9490 N.am    1  UNL1       -0.2552
      5  C2        -3.3040    1.1080   -0.0000 C.3     1  UNL1        0.0253
      6  C3        -3.7650   -0.2690    0.3710 C.3     1  UNL1       -0.0096
      7  C4        -2.5000   -1.0650    0.2970 C.ar    1  UNL1       -0.0245
      8  C5        -2.1750   -2.2720    0.8730 C.ar    1  UNL1       -0.0579
      9  C6        -0.9190   -2.7880    0.6370 C.ar    1  UNL1       -0.0758
     10  C7        -0.0180   -2.0950   -0.1640 C.ar    1  UNL1       -0.1274
     11  N3         1.2760   -2.6390   -0.4010 N.pl3   1  UNL1       -0.5366
     12  S1         2.6210   -2.2970    0.6150 S.O2    1  UNL1       -0.0533
     13  O2         3.8010   -3.0640    0.0880 O.2     1  UNL1       -0.1840
     14  O3         2.3040   -2.8120    1.9940 O.2     1  UNL1       -0.1840
     15  C8         2.9850   -0.6080    0.6170 C.ar    1  UNL1        0.1486
     16  C9         3.8710   -0.0250   -0.2920 C.ar    1  UNL1        0.1875
     17  F1         4.4420   -0.8650   -1.1910 F       1  UNL1       -0.2003
     18  C10        4.1470    1.3270   -0.2710 C.ar    1  UNL1        0.1982
     19  F2         5.0060    1.8610   -1.1600 F       1  UNL1       -0.1993
     20  C11        3.5430    2.1500    0.6640 C.ar    1  UNL1        0.1992
     21  F3         3.7820    3.4710    0.7200 F       1  UNL1       -0.1993
     22  C12        2.6660    1.5520    1.5580 C.ar    1  UNL1        0.1982
     23  F4         2.0710    2.3560    2.4770 F       1  UNL1       -0.1993
     24  C13        2.3830    0.2090    1.5480 C.ar    1  UNL1        0.1875
     25  F5         1.5140   -0.2730    2.4620 F       1  UNL1       -0.2003
     26  C14       -0.3420   -0.8930   -0.7380 C.ar    1  UNL1       -0.0543
     27  C15       -1.6160   -0.3680   -0.5000 C.ar    1  UNL1        0.0398
     28 H          -2.2519    3.2738   -3.2527 H       1  UNL1        0.1465
     29 H          -3.2872    3.0917   -1.9101 H       1  UNL1        0.1465
     30 H          -4.0937    1.6703   -0.4528 H       1  UNL1        0.0472
     31 H          -2.9884    1.6908    0.8400 H       1  UNL1        0.0472
     32 H          -4.4924   -0.6335   -0.3239 H       1  UNL1        0.0329
     33 H          -4.2430   -0.3156    1.3272 H       1  UNL1        0.0329
     34 H          -2.8530   -2.7767    1.4652 H       1  UNL1        0.0621
     35 H          -0.6465   -3.6910    1.0558 H       1  UNL1        0.0606
     36 H           0.3364   -0.3889   -1.3301 H       1  UNL1        0.0624
@<TRIPOS>UNITY_ATOM_ATTR
11 1
charge -1
@<TRIPOS>BOND
     1     1     2   am
     2     2     3    2
     3     2     4   am
     4     4     5    1
     5     4    27    1
     6     5     6    1
     7     6     7    1
     8     7     8   ar
     9     7    27   ar
    10     8     9   ar
    11     9    10   ar
    12    10    11    1
    13    10    26   ar
    14    11    12    1
    15    12    13    2
    16    12    14    2
    17    12    15    1
    18    15    16   ar
    19    15    24   ar
    20    16    17    1
    21    16    18   ar
    22    18    19    1
    23    18    20   ar
    24    20    21    1
    25    20    22   ar
    26    22    23    1
    27    22    24   ar
    28    24    25    1
    29    26    27   ar
    30     1    28    1
    31     1    29    1
    32     5    30    1
    33     5    31    1
    34     6    32    1
    35     6    33    1
    36     8    34    1
    37     9    35    1
    38    26    36    1
@<TRIPOS>MOLECULE
../data/bude_mols_rdkit_confs_charged/molecule_93.pdb
 36 38 0 0 0
SMALL
GASTEIGER

@<TRIPOS>ATOM
      1  N1        -0.8150   -2.1250    1.6020 N.am    1  UNL1       -0.3129
      2  C1        -2.0860   -1.5050    1.7680 C.2     1  UNL1        0.3039
      3  O1        -2.8150   -1.9590    2.6850 O.2     1  UNL1       -0.2525
      4  N2        -2.5310   -0.4330    0.9600 N.am    1  UNL1       -0.2552
      5  C2        -3.7970    0.2420    1.0680 C.3     1  UNL1        0.0253
      6  C3        -3.5180    1.6190    0.5430 C.3     1  UNL1       -0.0096
      7  C4        -2.4030    1.4250   -0.3890 C.ar    1  UNL1       -0.0245
      8  C5        -1.9070    2.2490   -1.4080 C.ar    1  UNL1       -0.0579
      9  C6        -0.8280    1.7900   -2.1260 C.ar    1  UNL1       -0.0758
     10  C7        -0.2520    0.5640   -1.8580 C.ar    1  UNL1       -0.1274
     11  N3         0.8750    0.1350   -2.6410 N.pl3   1  UNL1       -0.5366
     12  S1         2.4550    0.5530   -2.0880 S.O2    1  UNL1       -0.0533
     13  O2         3.4300    0.0390   -3.1390 O.2     1  UNL1       -0.1840
     14  O3         2.5480    2.0640   -2.0560 O.2     1  UNL1       -0.1840
     15  C8         2.8020   -0.1390   -0.5210 C.ar    1  UNL1        0.1486
     16  C9         2.5080    0.5390    0.6430 C.ar    1  UNL1        0.1875
     17  F1         1.9340    1.7740    0.5410 F       1  UNL1       -0.2003
     18  C10        2.7780    0.0010    1.8930 C.ar    1  UNL1        0.1982
     19  F2         2.4850    0.6760    3.0350 F       1  UNL1       -0.1993
     20  C11        3.3570   -1.2430    2.0190 C.ar    1  UNL1        0.1992
     21  F3         3.6280   -1.7820    3.2520 F       1  UNL1       -0.1993
     22  C12        3.6560   -1.9310    0.8640 C.ar    1  UNL1        0.1982
     23  F4         4.2250   -3.1530    0.9870 F       1  UNL1       -0.1993
     24  C13        3.3800   -1.3810   -0.3820 C.ar    1  UNL1        0.1875
     25  F5         3.6780   -2.0650   -1.5070 F       1  UNL1       -0.2003
     26  C14       -0.7410   -0.2470   -0.8550 C.ar    1  UNL1       -0.0543
     27  C15       -1.8310    0.2010   -0.1200 C.ar    1  UNL1        0.0398
     28 H          -0.5496   -2.8689    2.1898 H       1  UNL1        0.1465
     29 H          -0.2016   -1.8098    0.8994 H       1  UNL1        0.1465
     30 H          -4.1215    0.2816    2.0868 H       1  UNL1        0.0472
     31 H          -4.5766   -0.2548    0.5292 H       1  UNL1        0.0472
     32 H          -3.2391    2.2794    1.3373 H       1  UNL1        0.0329
     33 H          -4.3725    2.0622    0.0758 H       1  UNL1        0.0329
     34 H          -2.3353    3.1655   -1.6118 H       1  UNL1        0.0621
     35 H          -0.4398    2.3750   -2.8824 H       1  UNL1        0.0606
     36 H          -0.3083   -1.1625   -0.6560 H       1  UNL1        0.0624
@<TRIPOS>UNITY_ATOM_ATTR
11 1
charge -1
@<TRIPOS>BOND
     1     1     2   am
     2     2     3    2
     3     2     4   am
     4     4     5    1
     5     4    27    1
     6     5     6    1
     7     6     7    1
     8     7     8   ar
     9     7    27   ar
    10     8     9   ar
    11     9    10   ar
    12    10    11    1
    13    10    26   ar
    14    11    12    1
    15    12    13    2
    16    12    14    2
    17    12    15    1
    18    15    16   ar
    19    15    24   ar
    20    16    17    1
    21    16    18   ar
    22    18    19    1
    23    18    20   ar
    24    20    21    1
    25    20    22   ar
    26    22    23    1
    27    22    24   ar
    28    24    25    1
    29    26    27   ar
    30     1    28    1
    31     1    29    1
    32     5    30    1
    33     5    31    1
    34     6    32    1
    35     6    33    1
    36     8    34    1
    37     9    35    1
    38    26    36    1
@<TRIPOS>MOLECULE
../data/bude_mols_rdkit_confs_charged/molecule_93.pdb
 36 38 0 0 0
SMALL
GASTEIGER

@<TRIPOS>ATOM
      1  N1        -5.5310   -0.5830    0.5850 N.am    1  UNL1       -0.3129
      2  C1        -4.2620   -0.0070    0.7750 C.2     1  UNL1        0.3039
      3  O1        -3.9920    0.5350    1.8640 O.2     1  UNL1       -0.2525
      4  N2        -3.3160   -0.0540   -0.2770 N.am    1  UNL1       -0.2552
      5  C2        -3.5250   -0.6640   -1.5970 C.3     1  UNL1        0.0253
      6  C3        -2.5510    0.0480   -2.5090 C.3     1  UNL1       -0.0096
      7  C4        -1.4950    0.5350   -1.5910 C.ar    1  UNL1       -0.0245
      8  C5        -0.2060    1.0110   -1.8510 C.ar    1  UNL1       -0.0579
      9  C6         0.5460    1.3950   -0.7620 C.ar    1  UNL1       -0.0758
     10  C7         0.0810    1.3260    0.5240 C.ar    1  UNL1       -0.1274
     11  N3         0.8480    1.7200    1.6550 N.pl3   1  UNL1       -0.5366
     12  S1         1.8490    0.5750    2.4610 S.O2    1  UNL1       -0.0533
     13  O2         2.4550    1.2260    3.6840 O.2     1  UNL1       -0.1840
     14  O3         1.0010   -0.5670    2.9730 O.2     1  UNL1       -0.1840
     15  C8         3.0840   -0.0550    1.4190 C.ar    1  UNL1        0.1486
     16  C9         2.8120   -1.1940    0.6730 C.ar    1  UNL1        0.1875
     17  F1         1.6090   -1.7910    0.7640 F       1  UNL1       -0.2003
     18  C10        3.7410   -1.7450   -0.1690 C.ar    1  UNL1        0.1982
     19  F2         3.4810   -2.8500   -0.8940 F       1  UNL1       -0.1993
     20  C11        4.9710   -1.1490   -0.2730 C.ar    1  UNL1        0.1992
     21  F3         5.8840   -1.6910   -1.1020 F       1  UNL1       -0.1993
     22  C12        5.2920   -0.0240    0.4390 C.ar    1  UNL1        0.1982
     23  F4         6.5210    0.5130    0.2900 F       1  UNL1       -0.1993
     24  C13        4.3360    0.5070    1.2780 C.ar    1  UNL1        0.1875
     25  F5         4.6100    1.6130    1.9980 F       1  UNL1       -0.2003
     26  C14       -1.1960    0.8520    0.7430 C.ar    1  UNL1       -0.0543
     27  C15       -1.9870    0.4550   -0.3120 C.ar    1  UNL1        0.0398
     28 H          -6.1971   -0.5564    1.3094 H       1  UNL1        0.1465
     29 H          -5.7531   -1.0128   -0.2724 H       1  UNL1        0.1465
     30 H          -4.5312   -0.5120   -1.9276 H       1  UNL1        0.0472
     31 H          -3.3664   -1.7221   -1.5831 H       1  UNL1        0.0472
     32 H          -3.0264    0.8651   -3.0102 H       1  UNL1        0.0329
     33 H          -2.1672   -0.5873   -3.2798 H       1  UNL1        0.0329
     34 H           0.1643    1.0718   -2.8124 H       1  UNL1        0.0621
     35 H           1.5015    1.7502   -0.9228 H       1  UNL1        0.0606
     36 H          -1.5618    0.7944    1.7063 H       1  UNL1        0.0624
@<TRIPOS>UNITY_ATOM_ATTR
11 1
charge -1
@<TRIPOS>BOND
     1     1     2   am
     2     2     3    2
     3     2     4   am
     4     4     5    1
     5     4    27    1
     6     5     6    1
     7     6     7    1
     8     7     8   ar
     9     7    27   ar
    10     8     9   ar
    11     9    10   ar
    12    10    11    1
    13    10    26   ar
    14    11    12    1
    15    12    13    2
    16    12    14    2
    17    12    15    1
    18    15    16   ar
    19    15    24   ar
    20    16    17    1
    21    16    18   ar
    22    18    19    1
    23    18    20   ar
    24    20    21    1
    25    20    22   ar
    26    22    23    1
    27    22    24   ar
    28    24    25    1
    29    26    27   ar
    30     1    28    1
    31     1    29    1
    32     5    30    1
    33     5    31    1
    34     6    32    1
    35     6    33    1
    36     8    34    1
    37     9    35    1
    38    26    36    1
@<TRIPOS>MOLECULE
../data/bude_mols_rdkit_confs_charged/molecule_93.pdb
 36 38 0 0 0
SMALL
GASTEIGER

@<TRIPOS>ATOM
      1  N1        -5.2300   -1.9500   -1.0360 N.am    1  UNL1       -0.3129
      2  C1        -4.0350   -1.2040   -1.2170 C.2     1  UNL1        0.3039
      3  O1        -3.6470   -1.0050   -2.3940 O.2     1  UNL1       -0.2525
      4  N2        -3.3120   -0.7050   -0.1030 N.am    1  UNL1       -0.2552
      5  C2        -3.6940   -0.8920    1.2950 C.3     1  UNL1        0.0253
      6  C3        -3.0240    0.2300    2.0130 C.3     1  UNL1       -0.0096
      7  C4        -1.9140    0.6130    1.1100 C.ar    1  UNL1       -0.0245
      8  C5        -0.7790    1.3990    1.2940 C.ar    1  UNL1       -0.0579
      9  C6         0.1080    1.5950    0.2560 C.ar    1  UNL1       -0.0758
     10  C7        -0.0790    1.0390   -0.9830 C.ar    1  UNL1       -0.1274
     11  N3         0.8340    1.2470   -2.0340 N.pl3   1  UNL1       -0.5366
     12  S1         2.1920    0.2490   -2.3580 S.O2    1  UNL1       -0.0533
     13  O2         1.7080   -1.1420   -2.5770 O.2     1  UNL1       -0.1840
     14  O3         2.9110    0.7970   -3.5510 O.2     1  UNL1       -0.1840
     15  C8         3.3280    0.2250   -1.0270 C.ar    1  UNL1        0.1486
     16  C9         4.3670    1.1270   -0.9290 C.ar    1  UNL1        0.1875
     17  F1         4.4890    2.0520   -1.9090 F       1  UNL1       -0.2003
     18  C10        5.2340    1.0610    0.1430 C.ar    1  UNL1        0.1982
     19  F2         6.2540    1.9390    0.2480 F       1  UNL1       -0.1993
     20  C11        5.1140    0.1180    1.1480 C.ar    1  UNL1        0.1992
     21  F3         5.9690    0.0590    2.1990 F       1  UNL1       -0.1993
     22  C12        4.0690   -0.7760    1.0330 C.ar    1  UNL1        0.1982
     23  F4         3.9110   -1.7300    2.0060 F       1  UNL1       -0.1993
     24  C13        3.1940   -0.7250   -0.0310 C.ar    1  UNL1        0.1875
     25  F5         2.1650   -1.6170   -0.1310 F       1  UNL1       -0.2003
     26  C14       -1.2050    0.2550   -1.1780 C.ar    1  UNL1       -0.0543
     27  C15       -2.1090    0.0510   -0.1300 C.ar    1  UNL1        0.0398
     28 H          -5.7213   -2.2901   -1.8185 H       1  UNL1        0.1465
     29 H          -5.5670   -2.1270   -0.1281 H       1  UNL1        0.1465
     30 H          -3.3472   -1.8363    1.6597 H       1  UNL1        0.0472
     31 H          -4.7551   -0.8899    1.4327 H       1  UNL1        0.0472
     32 H          -2.6495   -0.0938    2.9616 H       1  UNL1        0.0329
     33 H          -3.6875    1.0431    2.2219 H       1  UNL1        0.0329
     34 H          -0.6008    1.8369    2.2114 H       1  UNL1        0.0621
     35 H           0.9419    2.1810    0.4179 H       1  UNL1        0.0606
     36 H          -1.3770   -0.1793   -2.0983 H       1  UNL1        0.0624
@<TRIPOS>UNITY_ATOM_ATTR
11 1
charge -1
@<TRIPOS>BOND
     1     1     2   am
     2     2     3    2
     3     2     4   am
     4     4     5    1
     5     4    27    1
     6     5     6    1
     7     6     7    1
     8     7     8   ar
     9     7    27   ar
    10     8     9   ar
    11     9    10   ar
    12    10    11    1
    13    10    26   ar
    14    11    12    1
    15    12    13    2
    16    12    14    2
    17    12    15    1
    18    15    16   ar
    19    15    24   ar
    20    16    17    1
    21    16    18   ar
    22    18    19    1
    23    18    20   ar
    24    20    21    1
    25    20    22   ar
    26    22    23    1
    27    22    24   ar
    28    24    25    1
    29    26    27   ar
    30     1    28    1
    31     1    29    1
    32     5    30    1
    33     5    31    1
    34     6    32    1
    35     6    33    1
    36     8    34    1
    37     9    35    1
    38    26    36    1
@<TRIPOS>MOLECULE
../data/bude_mols_rdkit_confs_charged/molecule_93.pdb
 36 38 0 0 0
SMALL
GASTEIGER

@<TRIPOS>ATOM
      1  N1        -2.8380    3.1810    0.2600 N.am    1  UNL1       -0.3129
      2  C1        -1.9460    2.0800    0.3090 C.2     1  UNL1        0.3039
      3  O1        -0.7310    2.3550    0.5370 O.2     1  UNL1       -0.2525
      4  N2        -2.3910    0.7550    0.1140 N.am    1  UNL1       -0.2552
      5  C2        -3.7720    0.3760   -0.1510 C.3     1  UNL1        0.0253
      6  C3        -3.5800   -0.8040   -1.0660 C.3     1  UNL1       -0.0096
      7  C4        -2.3360   -1.4350   -0.5720 C.ar    1  UNL1       -0.0245
      8  C5        -1.7920   -2.7000   -0.6800 C.ar    1  UNL1       -0.0579
      9  C6        -0.5960   -2.9630   -0.0980 C.ar    1  UNL1       -0.0758
     10  C7         0.1310   -2.0330    0.6110 C.ar    1  UNL1       -0.1274
     11  N3         1.3570   -2.2650    1.2190 N.pl3   1  UNL1       -0.5366
     12  S1         2.9010   -2.0600    0.5110 S.O2    1  UNL1       -0.0533
     13  O2         3.0730   -2.9520   -0.7100 O.2     1  UNL1       -0.1840
     14  O3         4.0020   -2.4170    1.4520 O.2     1  UNL1       -0.1840
     15  C8         3.0790   -0.3820    0.0800 C.ar    1  UNL1        0.1486
     16  C9         3.6130    0.4980    0.9910 C.ar    1  UNL1        0.1875
     17  F1         4.0220    0.1470    2.2330 F       1  UNL1       -0.2003
     18  C10        3.7570    1.8480    0.6460 C.ar    1  UNL1        0.1982
     19  F2         4.2770    2.7090    1.5310 F       1  UNL1       -0.1993
     20  C11        3.3610    2.3040   -0.6160 C.ar    1  UNL1        0.1992
     21  F3         3.5020    3.6140   -0.9480 F       1  UNL1       -0.1993
     22  C12        2.8300    1.3930   -1.5030 C.ar    1  UNL1        0.1982
     23  F4         2.4470    1.8330   -2.7230 F       1  UNL1       -0.1993
     24  C13        2.6830    0.0430   -1.1650 C.ar    1  UNL1        0.1875
     25  F5         2.1530   -0.7880   -2.0910 F       1  UNL1       -0.2003
     26  C14       -0.4300   -0.7600    0.7120 C.ar    1  UNL1       -0.0543
     27  C15       -1.6520   -0.4610    0.1270 C.ar    1  UNL1        0.0398
     28 H          -2.4999    4.0950    0.3997 H       1  UNL1        0.1465
     29 H          -3.7954    3.0315    0.0863 H       1  UNL1        0.1465
     30 H          -4.3092    1.1646   -0.6353 H       1  UNL1        0.0472
     31 H          -4.3454    0.1627    0.7269 H       1  UNL1        0.0472
     32 H          -3.4684   -0.4850   -2.0812 H       1  UNL1        0.0329
     33 H          -4.4147   -1.4734   -1.0587 H       1  UNL1        0.0329
     34 H          -2.2917   -3.4387   -1.1993 H       1  UNL1        0.0621
     35 H          -0.2083   -3.9148   -0.1918 H       1  UNL1        0.0606
     36 H           0.0743   -0.0254    1.2326 H       1  UNL1        0.0624
@<TRIPOS>UNITY_ATOM_ATTR
11 1
charge -1
@<TRIPOS>BOND
     1     1     2   am
     2     2     3    2
     3     2     4   am
     4     4     5    1
     5     4    27    1
     6     5     6    1
     7     6     7    1
     8     7     8   ar
     9     7    27   ar
    10     8     9   ar
    11     9    10   ar
    12    10    11    1
    13    10    26   ar
    14    11    12    1
    15    12    13    2
    16    12    14    2
    17    12    15    1
    18    15    16   ar
    19    15    24   ar
    20    16    17    1
    21    16    18   ar
    22    18    19    1
    23    18    20   ar
    24    20    21    1
    25    20    22   ar
    26    22    23    1
    27    22    24   ar
    28    24    25    1
    29    26    27   ar
    30     1    28    1
    31     1    29    1
    32     5    30    1
    33     5    31    1
    34     6    32    1
    35     6    33    1
    36     8    34    1
    37     9    35    1
    38    26    36    1
@<TRIPOS>MOLECULE
../data/bude_mols_rdkit_confs_charged/molecule_93.pdb
 36 38 0 0 0
SMALL
GASTEIGER

@<TRIPOS>ATOM
      1  N1        -3.9910    1.3580    1.6390 N.am    1  UNL1       -0.3129
      2  C1        -4.3510    0.2350    0.8480 C.2     1  UNL1        0.3039
      3  O1        -5.4960   -0.2480    1.0300 O.2     1  UNL1       -0.2525
      4  N2        -3.4830   -0.3280   -0.1020 N.am    1  UNL1       -0.2552
      5  C2        -3.7630   -1.4710   -0.9530 C.3     1  UNL1        0.0253
      6  C3        -2.8490   -1.2840   -2.1390 C.3     1  UNL1       -0.0096
      7  C4        -1.7650   -0.4280   -1.6010 C.ar    1  UNL1       -0.0245
      8  C5        -0.4880   -0.0950   -2.0570 C.ar    1  UNL1       -0.0579
      9  C6         0.3530    0.7440   -1.3580 C.ar    1  UNL1       -0.0758
     10  C7        -0.0440    1.2950   -0.1580 C.ar    1  UNL1       -0.1274
     11  N3         0.7950    2.1660    0.5960 N.pl3   1  UNL1       -0.5366
     12  S1         1.8880    1.5230    1.7980 S.O2    1  UNL1       -0.0533
     13  O2         2.5920    2.6170    2.5080 O.2     1  UNL1       -0.1840
     14  O3         1.0660    0.6830    2.7340 O.2     1  UNL1       -0.1840
     15  C8         3.0510    0.4430    1.0040 C.ar    1  UNL1        0.1486
     16  C9         2.7770   -0.8970    0.8670 C.ar    1  UNL1        0.1875
     17  F1         1.5900   -1.3820    1.3540 F       1  UNL1       -0.2003
     18  C10        3.6750   -1.7350    0.2530 C.ar    1  UNL1        0.1982
     19  F2         3.4120   -3.0550    0.1150 F       1  UNL1       -0.1993
     20  C11        4.8880   -1.2780   -0.2520 C.ar    1  UNL1        0.1992
     21  F3         5.7800   -2.0970   -0.8590 F       1  UNL1       -0.1993
     22  C12        5.1180    0.0720   -0.0910 C.ar    1  UNL1        0.1982
     23  F4         6.2890    0.5580   -0.5700 F       1  UNL1       -0.1993
     24  C13        4.2370    0.9260    0.5170 C.ar    1  UNL1        0.1875
     25  F5         4.5290    2.2350    0.6390 F       1  UNL1       -0.2003
     26  C14       -1.3010    0.9710    0.2980 C.ar    1  UNL1       -0.0543
     27  C15       -2.1610    0.1200   -0.4080 C.ar    1  UNL1        0.0398
     28 H          -4.6284    1.7231    2.2944 H       1  UNL1        0.1465
     29 H          -3.1040    1.7715    1.5320 H       1  UNL1        0.1465
     30 H          -4.7878   -1.4728   -1.2606 H       1  UNL1        0.0472
     31 H          -3.5997   -2.4030   -0.4534 H       1  UNL1        0.0472
     32 H          -3.3592   -0.7965   -2.9433 H       1  UNL1        0.0329
     33 H          -2.4919   -2.2083   -2.5428 H       1  UNL1        0.0329
     34 H          -0.1613   -0.4923   -2.9517 H       1  UNL1        0.0621
     35 H           1.2882    0.9617   -1.7362 H       1  UNL1        0.0606
     36 H          -1.6224    1.3699    1.1939 H       1  UNL1        0.0624
@<TRIPOS>UNITY_ATOM_ATTR
11 1
charge -1
@<TRIPOS>BOND
     1     1     2   am
     2     2     3    2
     3     2     4   am
     4     4     5    1
     5     4    27    1
     6     5     6    1
     7     6     7    1
     8     7     8   ar
     9     7    27   ar
    10     8     9   ar
    11     9    10   ar
    12    10    11    1
    13    10    26   ar
    14    11    12    1
    15    12    13    2
    16    12    14    2
    17    12    15    1
    18    15    16   ar
    19    15    24   ar
    20    16    17    1
    21    16    18   ar
    22    18    19    1
    23    18    20   ar
    24    20    21    1
    25    20    22   ar
    26    22    23    1
    27    22    24   ar
    28    24    25    1
    29    26    27   ar
    30     1    28    1
    31     1    29    1
    32     5    30    1
    33     5    31    1
    34     6    32    1
    35     6    33    1
    36     8    34    1
    37     9    35    1
    38    26    36    1
@<TRIPOS>MOLECULE
../data/bude_mols_rdkit_confs_charged/molecule_93.pdb
 36 38 0 0 0
SMALL
GASTEIGER

@<TRIPOS>ATOM
      1  N1        -5.0950    2.1880   -0.1800 N.am    1  UNL1       -0.3129
      2  C1        -3.8280    1.7000    0.2030 C.2     1  UNL1        0.3039
      3  O1        -3.1300    2.3720    0.9870 O.2     1  UNL1       -0.2525
      4  N2        -3.3510    0.4730   -0.2880 N.am    1  UNL1       -0.2552
      5  C2        -4.0090   -0.4620   -1.2110 C.3     1  UNL1        0.0253
      6  C3        -2.8300   -0.9110   -2.0380 C.3     1  UNL1       -0.0096
      7  C4        -1.7500   -0.9990   -1.0260 C.ar    1  UNL1       -0.0245
      8  C5        -0.5590   -1.7140   -0.9430 C.ar    1  UNL1       -0.0579
      9  C6         0.2710   -1.5860    0.1520 C.ar    1  UNL1       -0.0758
     10  C7        -0.0590   -0.7420    1.1980 C.ar    1  UNL1       -0.1274
     11  N3         0.7890   -0.6180    2.3050 N.pl3   1  UNL1       -0.5366
     12  S1         2.0350    0.5680    2.3300 S.O2    1  UNL1       -0.0533
     13  O2         1.4080    1.9330    2.2120 O.2     1  UNL1       -0.1840
     14  O3         2.7920    0.5430    3.6190 O.2     1  UNL1       -0.1840
     15  C8         3.1830    0.2970    1.0380 C.ar    1  UNL1        0.1486
     16  C9         3.0230    0.8630   -0.1940 C.ar    1  UNL1        0.1875
     17  F1         1.9760    1.6560   -0.4770 F       1  UNL1       -0.2003
     18  C10        3.9650    0.6080   -1.1650 C.ar    1  UNL1        0.1982
     19  F2         3.8250    1.1600   -2.3970 F       1  UNL1       -0.1993
     20  C11        5.0580   -0.2130   -0.8920 C.ar    1  UNL1        0.1992
     21  F3         6.0020   -0.4760   -1.8450 F       1  UNL1       -0.1993
     22  C12        5.2300   -0.7900    0.3500 C.ar    1  UNL1        0.1982
     23  F4         6.3030   -1.5960    0.6200 F       1  UNL1       -0.1993
     24  C13        4.2790   -0.5230    1.3060 C.ar    1  UNL1        0.1875
     25  F5         4.4120   -1.0750    2.5480 F       1  UNL1       -0.2003
     26  C14       -1.2520   -0.0390    1.0920 C.ar    1  UNL1       -0.0543
     27  C15       -2.0950   -0.1540    0.0050 C.ar    1  UNL1        0.0398
     28 H          -5.4175    3.0493    0.1713 H       1  UNL1        0.1465
     29 H          -5.6567    1.6673   -0.7985 H       1  UNL1        0.1465
     30 H          -4.7473    0.0288   -1.8101 H       1  UNL1        0.0472
     31 H          -4.5455   -1.2551   -0.7335 H       1  UNL1        0.0472
     32 H          -2.5931   -0.1943   -2.7963 H       1  UNL1        0.0329
     33 H          -2.9997   -1.8269   -2.5645 H       1  UNL1        0.0329
     34 H          -0.2926   -2.3492   -1.7115 H       1  UNL1        0.0621
     35 H           1.1492   -2.1266    0.1914 H       1  UNL1        0.0606
     36 H          -1.5199    0.5970    1.8593 H       1  UNL1        0.0624
@<TRIPOS>UNITY_ATOM_ATTR
11 1
charge -1
@<TRIPOS>BOND
     1     1     2   am
     2     2     3    2
     3     2     4   am
     4     4     5    1
     5     4    27    1
     6     5     6    1
     7     6     7    1
     8     7     8   ar
     9     7    27   ar
    10     8     9   ar
    11     9    10   ar
    12    10    11    1
    13    10    26   ar
    14    11    12    1
    15    12    13    2
    16    12    14    2
    17    12    15    1
    18    15    16   ar
    19    15    24   ar
    20    16    17    1
    21    16    18   ar
    22    18    19    1
    23    18    20   ar
    24    20    21    1
    25    20    22   ar
    26    22    23    1
    27    22    24   ar
    28    24    25    1
    29    26    27   ar
    30     1    28    1
    31     1    29    1
    32     5    30    1
    33     5    31    1
    34     6    32    1
    35     6    33    1
    36     8    34    1
    37     9    35    1
    38    26    36    1
@<TRIPOS>MOLECULE
../data/bude_mols_rdkit_confs_charged/molecule_93.pdb
 36 38 0 0 0
SMALL
GASTEIGER

@<TRIPOS>ATOM
      1  N1        -4.2040    0.7280   -1.8310 N.am    1  UNL1       -0.3129
      2  C1        -4.4400   -0.2110   -0.7960 C.2     1  UNL1        0.3039
      3  O1        -5.5280   -0.8370   -0.7440 O.2     1  UNL1       -0.2525
      4  N2        -3.4680   -0.4830    0.2170 N.am    1  UNL1       -0.2552
      5  C2        -3.5930   -1.4150    1.3200 C.3     1  UNL1        0.0253
      6  C3        -2.8320   -0.7200    2.4200 C.3     1  UNL1       -0.0096
      7  C4        -1.7540   -0.0210    1.6750 C.ar    1  UNL1       -0.0245
      8  C5        -0.5260    0.4780    2.0410 C.ar    1  UNL1       -0.0579
      9  C6         0.2600    1.0890    1.0910 C.ar    1  UNL1       -0.0758
     10  C7        -0.1520    1.2140   -0.2180 C.ar    1  UNL1       -0.1274
     11  N3         0.6440    1.8370   -1.1960 N.pl3   1  UNL1       -0.5366
     12  S1         1.7890    0.9830   -2.1680 S.O2    1  UNL1       -0.0533
     13  O2         1.1150   -0.1000   -2.9390 O.2     1  UNL1       -0.1840
     14  O3         2.4790    1.9170   -3.1190 O.2     1  UNL1       -0.1840
     15  C8         3.0400    0.2510   -1.1770 C.ar    1  UNL1        0.1486
     16  C9         2.8930   -1.0300   -0.6810 C.ar    1  UNL1        0.1875
     17  F1         1.7630   -1.7180   -0.9710 F       1  UNL1       -0.2003
     18  C10        3.8770   -1.6020    0.0970 C.ar    1  UNL1        0.1982
     19  F2         3.7490   -2.8560    0.5910 F       1  UNL1       -0.1993
     20  C11        5.0430   -0.9150    0.4070 C.ar    1  UNL1        0.1992
     21  F3         5.9850   -1.5100    1.1730 F       1  UNL1       -0.1993
     22  C12        5.1830    0.3590   -0.0900 C.ar    1  UNL1        0.1982
     23  F4         6.2990    1.0660    0.1840 F       1  UNL1       -0.1993
     24  C13        4.2050    0.9310   -0.8640 C.ar    1  UNL1        0.1875
     25  F5         4.3240    2.1870   -1.3650 F       1  UNL1       -0.2003
     26  C14       -1.3770    0.7190   -0.5920 C.ar    1  UNL1       -0.0543
     27  C15       -2.1710    0.1050    0.3570 C.ar    1  UNL1        0.0398
     28 H          -4.8943    0.8922   -2.5135 H       1  UNL1        0.1465
     29 H          -3.3498    1.2161   -1.8675 H       1  UNL1        0.1465
     30 H          -3.1508   -2.3595    1.0806 H       1  UNL1        0.0472
     31 H          -4.6072   -1.6386    1.5775 H       1  UNL1        0.0472
     32 H          -2.4267   -1.4255    3.1149 H       1  UNL1        0.0329
     33 H          -3.4383   -0.0632    3.0082 H       1  UNL1        0.0329
     34 H          -0.1980    0.3953    3.0160 H       1  UNL1        0.0621
     35 H           1.1816    1.4632    1.3659 H       1  UNL1        0.0606
     36 H          -1.6999    0.8045   -1.5684 H       1  UNL1        0.0624
@<TRIPOS>UNITY_ATOM_ATTR
11 1
charge -1
@<TRIPOS>BOND
     1     1     2   am
     2     2     3    2
     3     2     4   am
     4     4     5    1
     5     4    27    1
     6     5     6    1
     7     6     7    1
     8     7     8   ar
     9     7    27   ar
    10     8     9   ar
    11     9    10   ar
    12    10    11    1
    13    10    26   ar
    14    11    12    1
    15    12    13    2
    16    12    14    2
    17    12    15    1
    18    15    16   ar
    19    15    24   ar
    20    16    17    1
    21    16    18   ar
    22    18    19    1
    23    18    20   ar
    24    20    21    1
    25    20    22   ar
    26    22    23    1
    27    22    24   ar
    28    24    25    1
    29    26    27   ar
    30     1    28    1
    31     1    29    1
    32     5    30    1
    33     5    31    1
    34     6    32    1
    35     6    33    1
    36     8    34    1
    37     9    35    1
    38    26    36    1
@<TRIPOS>MOLECULE
../data/bude_mols_rdkit_confs_charged/molecule_93.pdb
 36 38 0 0 0
SMALL
GASTEIGER

@<TRIPOS>ATOM
      1  N1        -1.7760   -0.1470    2.6080 N.am    1  UNL1       -0.3129
      2  C1        -2.4300   -1.1120    1.7970 C.2     1  UNL1        0.3039
      3  O1        -3.0170   -2.0580    2.3730 O.2     1  UNL1       -0.2525
      4  N2        -2.4440   -1.0480    0.3910 N.am    1  UNL1       -0.2552
      5  C2        -3.0480   -1.9260   -0.5800 C.3     1  UNL1        0.0253
      6  C3        -3.5270   -0.9370   -1.6230 C.3     1  UNL1       -0.0096
      7  C4        -2.4360    0.0830   -1.5870 C.ar    1  UNL1       -0.0245
      8  C5        -1.9920    1.0320   -2.5140 C.ar    1  UNL1       -0.0579
      9  C6        -0.9370    1.8800   -2.2360 C.ar    1  UNL1       -0.0758
     10  C7        -0.3080    1.7850   -1.0140 C.ar    1  UNL1       -0.1274
     11  N3         0.7810    2.6240   -0.6620 N.pl3   1  UNL1       -0.5366
     12  S1         2.4220    2.2390   -0.9640 S.O2    1  UNL1       -0.0533
     13  O2         2.7240    2.1260   -2.4230 O.2     1  UNL1       -0.1840
     14  O3         3.2630    3.3670   -0.4100 O.2     1  UNL1       -0.1840
     15  C8         2.8550    0.7740   -0.1060 C.ar    1  UNL1        0.1486
     16  C9         3.3540    0.8250    1.1790 C.ar    1  UNL1        0.1875
     17  F1         3.5120    2.0290    1.7880 F       1  UNL1       -0.2003
     18  C10        3.7090   -0.2920    1.8950 C.ar    1  UNL1        0.1982
     19  F2         4.2010   -0.2490    3.1600 F       1  UNL1       -0.1993
     20  C11        3.5640   -1.5210    1.3150 C.ar    1  UNL1        0.1992
     21  F3         3.8840   -2.6810    1.9350 F       1  UNL1       -0.1993
     22  C12        3.0600   -1.6060    0.0140 C.ar    1  UNL1        0.1982
     23  F4         2.9110   -2.8250   -0.5750 F       1  UNL1       -0.1993
     24  C13        2.7150   -0.4750   -0.6770 C.ar    1  UNL1        0.1875
     25  F5         2.2300   -0.6040   -1.9390 F       1  UNL1       -0.2003
     26  C14       -0.7380    0.8540   -0.0950 C.ar    1  UNL1       -0.0543
     27  C15       -1.8030   -0.0080   -0.3640 C.ar    1  UNL1        0.0398
     28 H          -1.7939   -0.2345    3.5884 H       1  UNL1        0.1465
     29 H          -1.3047    0.6095    2.1898 H       1  UNL1        0.1465
     30 H          -3.8638   -2.4744   -0.1573 H       1  UNL1        0.0472
     31 H          -2.3872   -2.6765   -0.9608 H       1  UNL1        0.0472
     32 H          -4.4704   -0.5103   -1.3533 H       1  UNL1        0.0329
     33 H          -3.6920   -1.3664   -2.5891 H       1  UNL1        0.0329
     34 H          -2.4645    1.1005   -3.4289 H       1  UNL1        0.0621
     35 H          -0.6250    2.5740   -2.9332 H       1  UNL1        0.0606
     36 H          -0.2600    0.7917    0.8175 H       1  UNL1        0.0624
@<TRIPOS>UNITY_ATOM_ATTR
11 1
charge -1
@<TRIPOS>BOND
     1     1     2   am
     2     2     3    2
     3     2     4   am
     4     4     5    1
     5     4    27    1
     6     5     6    1
     7     6     7    1
     8     7     8   ar
     9     7    27   ar
    10     8     9   ar
    11     9    10   ar
    12    10    11    1
    13    10    26   ar
    14    11    12    1
    15    12    13    2
    16    12    14    2
    17    12    15    1
    18    15    16   ar
    19    15    24   ar
    20    16    17    1
    21    16    18   ar
    22    18    19    1
    23    18    20   ar
    24    20    21    1
    25    20    22   ar
    26    22    23    1
    27    22    24   ar
    28    24    25    1
    29    26    27   ar
    30     1    28    1
    31     1    29    1
    32     5    30    1
    33     5    31    1
    34     6    32    1
    35     6    33    1
    36     8    34    1
    37     9    35    1
    38    26    36    1
