@<TRIPOS>MOLECULE
../data/bude_mols_rdkit_confs_charged/molecule_92.pdb
 60 64 0 0 0
SMALL
GASTEIGER

@<TRIPOS>ATOM
      1  N1         6.0360    0.4370    2.2390 N.pl3   1  UNL1       -0.2541
      2  C1         5.8570    0.1240    0.8440 C.2     1  UNL1        0.2207
      3  C2         6.7640   -0.5780    0.1950 C.2     1  UNL1        0.0118
      4  C3         8.0540   -1.2880    0.2460 C.3     1  UNL1       -0.0203
      5  C4         7.2960   -1.2400   -1.0420 C.3     1  UNL1       -0.0203
      6  N2         4.6510    0.6240    0.2620 N.pl3   1  UNL1       -0.3473
      7  C5         4.2200   -0.3260   -0.7330 C.3     1  UNL1        0.0485
      8  C6         3.0410    0.1650   -1.5250 C.3     1  UNL1       -0.0039
      9  C7         1.7680   -0.0220   -0.7280 C.3     1  UNL1        0.0184
     10  N3         1.5170    1.1370    0.1210 N.am    1  UNL1       -0.2939
     11  C8         0.2130    1.6370    0.2080 C.2     1  UNL1        0.2495
     12  O1        -0.0320    2.6250    0.9330 O.2     1  UNL1       -0.2699
     13  C9        -0.9110    1.0440   -0.5320 C.ar    1  UNL1        0.0723
     14  C10       -1.6470    0.0160   -0.0050 C.ar    1  UNL1       -0.0433
     15  C11       -2.6890   -0.5480   -0.7370 C.ar    1  UNL1       -0.0406
     16  C12       -3.4640   -1.6790   -0.1590 C.3     1  UNL1        0.0171
     17  C13       -4.5040   -1.1850    0.6950 C.ar    1  UNL1        0.0736
     18  N4        -4.1930   -1.0040    2.0160 N.ar    1  UNL1       -0.1750
     19  N5        -5.0220   -0.4950    2.8950 N.ar    1  UNL1       -0.2425
     20  C14       -6.2600   -0.1080    2.5570 C.ar    1  UNL1        0.2725
     21  O2        -7.0810    0.3880    3.3820 O.2     1  UNL1       -0.2658
     22  C15       -6.6660   -0.2530    1.2460 C.ar    1  UNL1        0.0496
     23  C16       -7.9530    0.1210    0.8750 C.ar    1  UNL1       -0.0487
     24  C17       -8.3400   -0.0560   -0.4290 C.ar    1  UNL1       -0.0610
     25  C18       -7.4470   -0.5990   -1.3350 C.ar    1  UNL1       -0.0611
     26  C19       -6.1620   -0.9700   -0.9580 C.ar    1  UNL1       -0.0521
     27  C20       -5.7710   -0.7950    0.3310 C.ar    1  UNL1        0.0106
     28  C21       -2.9360   -0.0380   -1.9770 C.ar    1  UNL1       -0.0555
     29  C22       -2.1840    1.0210   -2.5290 C.ar    1  UNL1       -0.0254
     30  C23       -1.1590    1.5660   -1.7920 C.ar    1  UNL1        0.1355
     31  F1        -0.3980    2.5830   -2.2560 F       1  UNL1       -0.2047
     32  C24        2.5570    1.7990    0.8740 C.3     1  UNL1        0.0480
     33  C25        3.6430    0.8460    1.2830 C.3     1  UNL1        0.0631
     34 H           6.8416    0.1283    2.7133 H       1  UNL1        0.2880
     35 H           5.3527    0.9595    2.7179 H       1  UNL1        0.2880
     36 H           8.1342   -2.2098    0.7833 H       1  UNL1        0.0316
     37 H           9.0469   -1.0241    0.5451 H       1  UNL1        0.0316
     38 H           7.6566   -0.6473   -1.8566 H       1  UNL1        0.0316
     39 H           6.9277   -1.9647   -1.7377 H       1  UNL1        0.0316
     40 H           5.4360    0.3883    0.8073 H       1  UNL1        0.2495
     41 H           3.9483   -1.2373   -0.2424 H       1  UNL1        0.0693
     42 H           5.0313   -0.4731   -1.4150 H       1  UNL1        0.0693
     43 H           2.9720   -0.3887   -2.4380 H       1  UNL1        0.0316
     44 H           3.1710    1.2050   -1.7403 H       1  UNL1        0.0316
     45 H           1.8626   -0.8933   -0.1142 H       1  UNL1        0.0466
     46 H           0.9495   -0.1343   -1.4080 H       1  UNL1        0.0466
     47 H          -1.4286   -0.3419    0.9380 H       1  UNL1        0.0629
     48 H          -2.8067   -2.3029    0.4099 H       1  UNL1        0.0377
     49 H          -3.9054   -2.2411   -0.9553 H       1  UNL1        0.0377
     50 H          -4.7271   -0.3943    3.8289 H       1  UNL1        0.1921
     51 H          -8.6040    0.5237    1.5671 H       1  UNL1        0.0625
     52 H          -9.2891    0.2136   -0.7314 H       1  UNL1        0.0618
     53 H          -7.7422   -0.7319   -2.3149 H       1  UNL1        0.0618
     54 H          -5.5117   -1.3742   -1.6500 H       1  UNL1        0.0624
     55 H          -3.7042   -0.4428   -2.5347 H       1  UNL1        0.0621
     56 H          -2.4001    1.3810   -3.4717 H       1  UNL1        0.0646
     57 H           2.1264    2.2311    1.7531 H       1  UNL1        0.0501
     58 H           2.9924    2.5507    0.2493 H       1  UNL1        0.0501
     59 H           4.1263    1.2401    2.1525 H       1  UNL1        0.0709
     60 H           3.1734   -0.0983    1.4641 H       1  UNL1        0.0709
@<TRIPOS>UNITY_ATOM_ATTR
6 1
charge 1
@<TRIPOS>BOND
     1     1     2    1
     2     2     3    2
     3     2     6    1
     4     3     4    1
     5     3     5    1
     6     4     5    1
     7     6     7    1
     8     6    33    1
     9     7     8    1
    10     8     9    1
    11     9    10    1
    12    10    11   am
    13    10    32    1
    14    11    12    2
    15    11    13    1
    16    13    14   ar
    17    13    30   ar
    18    14    15   ar
    19    15    16    1
    20    15    28   ar
    21    16    17    1
    22    17    18   ar
    23    17    27   ar
    24    18    19   ar
    25    19    20   ar
    26    20    21    2
    27    20    22   ar
    28    22    23   ar
    29    22    27   ar
    30    23    24   ar
    31    24    25   ar
    32    25    26   ar
    33    26    27   ar
    34    28    29   ar
    35    29    30   ar
    36    30    31    1
    37    32    33    1
    38     1    34    1
    39     1    35    1
    40     4    36    1
    41     4    37    1
    42     5    38    1
    43     5    39    1
    44     6    40    1
    45     7    41    1
    46     7    42    1
    47     8    43    1
    48     8    44    1
    49     9    45    1
    50     9    46    1
    51    14    47    1
    52    16    48    1
    53    16    49    1
    54    19    50    1
    55    23    51    1
    56    24    52    1
    57    25    53    1
    58    26    54    1
    59    28    55    1
    60    29    56    1
    61    32    57    1
    62    32    58    1
    63    33    59    1
    64    33    60    1
@<TRIPOS>MOLECULE
../data/bude_mols_rdkit_confs_charged/molecule_92.pdb
 60 64 0 0 0
SMALL
GASTEIGER

@<TRIPOS>ATOM
      1  N1         6.1010    1.0420    0.1170 N.pl3   1  UNL1       -0.2541
      2  C1         5.3060   -0.1200    0.0980 C.2     1  UNL1        0.2207
      3  C2         5.7340   -1.2000    0.7030 C.2     1  UNL1        0.0118
      4  C3         5.6640   -2.6130    1.1590 C.3     1  UNL1       -0.0203
      5  C4         6.8780   -1.7870    1.5200 C.3     1  UNL1       -0.0203
      6  N2         4.0470   -0.1070   -0.5810 N.pl3   1  UNL1       -0.3473
      7  C5         3.9450    0.9480   -1.5330 C.3     1  UNL1        0.0485
      8  C6         3.8630    2.3340   -1.0080 C.3     1  UNL1       -0.0039
      9  C7         2.3820    2.7350   -1.1230 C.3     1  UNL1        0.0184
     10  N3         1.6440    1.6140   -0.5500 N.am    1  UNL1       -0.2939
     11  C8         0.4140    1.3060   -1.1840 C.2     1  UNL1        0.2495
     12  O1         0.0520    1.9970   -2.1630 O.2     1  UNL1       -0.2699
     13  C9        -0.4560    0.2180   -0.7510 C.ar    1  UNL1        0.0723
     14  C10       -1.4310    0.3540    0.1850 C.ar    1  UNL1       -0.0433
     15  C11       -2.2450   -0.7170    0.5850 C.ar    1  UNL1       -0.0406
     16  C12       -3.2570   -0.4940    1.6210 C.3     1  UNL1        0.0171
     17  C13       -4.4520    0.2550    1.1930 C.ar    1  UNL1        0.0736
     18  N4        -4.4880    1.6090    1.4130 N.ar    1  UNL1       -0.1750
     19  N5        -5.4970    2.3640    1.0240 N.ar    1  UNL1       -0.2425
     20  C14       -6.5640    1.8590    0.3840 C.ar    1  UNL1        0.2725
     21  O2        -7.5270    2.5740    0.0120 O.2     1  UNL1       -0.2658
     22  C15       -6.6170    0.5120    0.1210 C.ar    1  UNL1        0.0496
     23  C16       -7.7140   -0.0410   -0.5260 C.ar    1  UNL1       -0.0487
     24  C17       -7.7230   -1.4000   -0.7510 C.ar    1  UNL1       -0.0610
     25  C18       -6.6750   -2.1960   -0.3460 C.ar    1  UNL1       -0.0611
     26  C19       -5.5900   -1.6110    0.3000 C.ar    1  UNL1       -0.0521
     27  C20       -5.5350   -0.2680    0.5430 C.ar    1  UNL1        0.0106
     28  C21       -2.0160   -1.9250   -0.0120 C.ar    1  UNL1       -0.0555
     29  C22       -1.0290   -2.0680   -0.9620 C.ar    1  UNL1       -0.0254
     30  C23       -0.2500   -1.0120   -1.3340 C.ar    1  UNL1        0.1355
     31  F1         0.7160   -1.2050   -2.2800 F       1  UNL1       -0.2047
     32  C24        2.0530    0.8170    0.5850 C.3     1  UNL1        0.0480
     33  C25        2.9420   -0.3220    0.2810 C.3     1  UNL1        0.0631
     34 H           6.9682    1.0376    0.5831 H       1  UNL1        0.2880
     35 H           5.7897    1.8589   -0.3358 H       1  UNL1        0.2880
     36 H           5.7531   -3.4069    0.4472 H       1  UNL1        0.0316
     37 H           4.9541   -3.1873    1.7168 H       1  UNL1        0.0316
     38 H           7.0346   -1.4729    2.5308 H       1  UNL1        0.0316
     39 H           7.9357   -1.8867    1.3925 H       1  UNL1        0.0316
     40 H           3.6987   -1.0277   -0.5669 H       1  UNL1        0.2495
     41 H           3.0642    0.7720   -2.1144 H       1  UNL1        0.0693
     42 H           4.8649    0.9152   -2.0785 H       1  UNL1        0.0693
     43 H           4.4739    2.9908   -1.5914 H       1  UNL1        0.0316
     44 H           4.2118    2.3955    0.0017 H       1  UNL1        0.0316
     45 H           2.1098    2.8806   -2.1475 H       1  UNL1        0.0466
     46 H           2.1733    3.6549   -0.6180 H       1  UNL1        0.0466
     47 H          -1.5786    1.2791    0.6180 H       1  UNL1        0.0629
     48 H          -2.7965    0.0492    2.4196 H       1  UNL1        0.0377
     49 H          -3.6059   -1.4653    1.9034 H       1  UNL1        0.0377
     50 H          -5.4669    3.3305    1.2091 H       1  UNL1        0.1921
     51 H          -8.5025    0.5510   -0.8306 H       1  UNL1        0.0625
     52 H          -8.5293   -1.8290   -1.2315 H       1  UNL1        0.0618
     53 H          -6.6939   -3.2132   -0.5192 H       1  UNL1        0.0618
     54 H          -4.8053   -2.2084    0.6039 H       1  UNL1        0.0624
     55 H          -2.5902   -2.7407    0.2525 H       1  UNL1        0.0621
     56 H          -0.8763   -2.9900   -1.3998 H       1  UNL1        0.0646
     57 H           1.1704    0.4301    1.0500 H       1  UNL1        0.0501
     58 H           2.6221    1.4719    1.2111 H       1  UNL1        0.0501
     59 H           3.3323   -0.6754    1.2125 H       1  UNL1        0.0709
     60 H           2.3184   -1.0041   -0.2581 H       1  UNL1        0.0709
@<TRIPOS>UNITY_ATOM_ATTR
6 1
charge 1
@<TRIPOS>BOND
     1     1     2    1
     2     2     3    2
     3     2     6    1
     4     3     4    1
     5     3     5    1
     6     4     5    1
     7     6     7    1
     8     6    33    1
     9     7     8    1
    10     8     9    1
    11     9    10    1
    12    10    11   am
    13    10    32    1
    14    11    12    2
    15    11    13    1
    16    13    14   ar
    17    13    30   ar
    18    14    15   ar
    19    15    16    1
    20    15    28   ar
    21    16    17    1
    22    17    18   ar
    23    17    27   ar
    24    18    19   ar
    25    19    20   ar
    26    20    21    2
    27    20    22   ar
    28    22    23   ar
    29    22    27   ar
    30    23    24   ar
    31    24    25   ar
    32    25    26   ar
    33    26    27   ar
    34    28    29   ar
    35    29    30   ar
    36    30    31    1
    37    32    33    1
    38     1    34    1
    39     1    35    1
    40     4    36    1
    41     4    37    1
    42     5    38    1
    43     5    39    1
    44     6    40    1
    45     7    41    1
    46     7    42    1
    47     8    43    1
    48     8    44    1
    49     9    45    1
    50     9    46    1
    51    14    47    1
    52    16    48    1
    53    16    49    1
    54    19    50    1
    55    23    51    1
    56    24    52    1
    57    25    53    1
    58    26    54    1
    59    28    55    1
    60    29    56    1
    61    32    57    1
    62    32    58    1
    63    33    59    1
    64    33    60    1
@<TRIPOS>MOLECULE
../data/bude_mols_rdkit_confs_charged/molecule_92.pdb
 60 64 0 0 0
SMALL
GASTEIGER

@<TRIPOS>ATOM
      1  N1         5.4080    0.4860    2.4700 N.pl3   1  UNL1       -0.2541
      2  C1         5.2420    0.0150    1.1390 C.2     1  UNL1        0.2207
      3  C2         6.1020   -0.7810    0.5440 C.2     1  UNL1        0.0118
      4  C3         6.6320   -1.5930   -0.5670 C.3     1  UNL1       -0.0203
      5  C4         7.4010   -1.5370    0.6950 C.3     1  UNL1       -0.0203
      6  N2         4.0650    0.4540    0.4460 N.pl3   1  UNL1       -0.3473
      7  C5         4.2720    1.8560    0.1760 C.3     1  UNL1        0.0485
      8  C6         3.1580    2.4910   -0.5940 C.3     1  UNL1       -0.0039
      9  C7         1.8570    2.5150    0.1430 C.3     1  UNL1        0.0184
     10  N3         1.2320    1.2070   -0.0390 N.am    1  UNL1       -0.2939
     11  C8         0.0810    1.1730   -0.8930 C.2     1  UNL1        0.2495
     12  O1        -0.2840    2.2600   -1.4070 O.2     1  UNL1       -0.2699
     13  C9        -0.6320   -0.0800   -1.1500 C.ar    1  UNL1        0.0723
     14  C10       -1.7020   -0.4620   -0.3260 C.ar    1  UNL1       -0.0433
     15  C11       -2.4030   -1.6080   -0.5310 C.ar    1  UNL1       -0.0406
     16  C12       -3.5700   -2.0580    0.3200 C.3     1  UNL1        0.0171
     17  C13       -4.8520   -1.5210   -0.1640 C.ar    1  UNL1        0.0736
     18  N4        -5.5290   -2.2610   -1.0900 N.ar    1  UNL1       -0.1750
     19  N5        -6.6380   -1.8660   -1.6660 N.ar    1  UNL1       -0.2425
     20  C14       -7.1810   -0.6790   -1.3650 C.ar    1  UNL1        0.2725
     21  O2        -8.2380   -0.3100   -1.9220 O.2     1  UNL1       -0.2658
     22  C15       -6.5480    0.1150   -0.4370 C.ar    1  UNL1        0.0496
     23  C16       -7.1010    1.3310   -0.0950 C.ar    1  UNL1       -0.0487
     24  C17       -6.4660    2.0910    0.8480 C.ar    1  UNL1       -0.0610
     25  C18       -5.2890    1.6750    1.4670 C.ar    1  UNL1       -0.0611
     26  C19       -4.7410    0.4600    1.1210 C.ar    1  UNL1       -0.0521
     27  C20       -5.3600   -0.3150    0.1780 C.ar    1  UNL1        0.0106
     28  C21       -2.0490   -2.4430   -1.6000 C.ar    1  UNL1       -0.0555
     29  C22       -1.0080   -2.0740   -2.4030 C.ar    1  UNL1       -0.0254
     30  C23       -0.3060   -0.9120   -2.1870 C.ar    1  UNL1        0.1355
     31  F1         0.7240   -0.5600   -2.9990 F       1  UNL1       -0.2047
     32  C24        1.6640   -0.0380    0.5550 C.3     1  UNL1        0.0480
     33  C25        2.9470    0.1730    1.2820 C.3     1  UNL1        0.0631
     34 H           6.1976    0.2165    2.9927 H       1  UNL1        0.2880
     35 H           4.7334    1.0817    2.8691 H       1  UNL1        0.2880
     36 H           7.0130   -1.1103   -1.4427 H       1  UNL1        0.0316
     37 H           6.2381   -2.3857   -1.1681 H       1  UNL1        0.0316
     38 H           7.4523   -2.3955    1.3316 H       1  UNL1        0.0316
     39 H           8.4043   -1.2811    0.9649 H       1  UNL1        0.0316
     40 H           3.6011    0.9833    1.1344 H       1  UNL1        0.2495
     41 H           5.1753    1.9617   -0.3876 H       1  UNL1        0.0693
     42 H           4.3208    2.3528    1.1224 H       1  UNL1        0.0693
     43 H           3.0212    1.9444   -1.5036 H       1  UNL1        0.0316
     44 H           3.4381    3.5089   -0.7684 H       1  UNL1        0.0316
     45 H           1.2249    3.2816   -0.2542 H       1  UNL1        0.0466
     46 H           2.0130    2.7197    1.1816 H       1  UNL1        0.0466
     47 H          -1.9656    0.1487    0.4631 H       1  UNL1        0.0629
     48 H          -3.4134   -1.7231    1.3241 H       1  UNL1        0.0377
     49 H          -3.6211   -3.1255    0.2685 H       1  UNL1        0.0377
     50 H          -7.0770   -2.4483   -2.3274 H       1  UNL1        0.1921
     51 H          -7.9725    1.6594   -0.5397 H       1  UNL1        0.0625
     52 H          -6.8720    3.0029    1.1099 H       1  UNL1        0.0618
     53 H          -4.8334    2.2703    2.1763 H       1  UNL1        0.0618
     54 H          -3.8698    0.1362    1.5695 H       1  UNL1        0.0624
     55 H          -2.5649   -3.3192   -1.7766 H       1  UNL1        0.0621
     56 H          -0.7414   -2.6831   -3.1923 H       1  UNL1        0.0646
     57 H           1.8064   -0.7686   -0.2137 H       1  UNL1        0.0501
     58 H           0.9189   -0.3810    1.2421 H       1  UNL1        0.0501
     59 H           2.8180    0.9957    1.9539 H       1  UNL1        0.0709
     60 H           3.1666   -0.7476    1.7812 H       1  UNL1        0.0709
@<TRIPOS>UNITY_ATOM_ATTR
6 1
charge 1
@<TRIPOS>BOND
     1     1     2    1
     2     2     3    2
     3     2     6    1
     4     3     4    1
     5     3     5    1
     6     4     5    1
     7     6     7    1
     8     6    33    1
     9     7     8    1
    10     8     9    1
    11     9    10    1
    12    10    11   am
    13    10    32    1
    14    11    12    2
    15    11    13    1
    16    13    14   ar
    17    13    30   ar
    18    14    15   ar
    19    15    16    1
    20    15    28   ar
    21    16    17    1
    22    17    18   ar
    23    17    27   ar
    24    18    19   ar
    25    19    20   ar
    26    20    21    2
    27    20    22   ar
    28    22    23   ar
    29    22    27   ar
    30    23    24   ar
    31    24    25   ar
    32    25    26   ar
    33    26    27   ar
    34    28    29   ar
    35    29    30   ar
    36    30    31    1
    37    32    33    1
    38     1    34    1
    39     1    35    1
    40     4    36    1
    41     4    37    1
    42     5    38    1
    43     5    39    1
    44     6    40    1
    45     7    41    1
    46     7    42    1
    47     8    43    1
    48     8    44    1
    49     9    45    1
    50     9    46    1
    51    14    47    1
    52    16    48    1
    53    16    49    1
    54    19    50    1
    55    23    51    1
    56    24    52    1
    57    25    53    1
    58    26    54    1
    59    28    55    1
    60    29    56    1
    61    32    57    1
    62    32    58    1
    63    33    59    1
    64    33    60    1
@<TRIPOS>MOLECULE
../data/bude_mols_rdkit_confs_charged/molecule_92.pdb
 60 64 0 0 0
SMALL
GASTEIGER

@<TRIPOS>ATOM
      1  N1         4.7440    2.1660    1.4430 N.pl3   1  UNL1       -0.2541
      2  C1         5.2220    1.3000    0.4240 C.2     1  UNL1        0.2207
      3  C2         6.4310    1.4040   -0.1020 C.2     1  UNL1        0.0118
      4  C3         7.7250    2.1530   -0.0950 C.3     1  UNL1       -0.0203
      5  C4         7.5500    1.0490   -0.9920 C.3     1  UNL1       -0.0203
      6  N2         4.3300    0.2850   -0.0260 N.pl3   1  UNL1       -0.3473
      7  C5         3.8840   -0.4600    1.0900 C.3     1  UNL1        0.0485
      8  C6         2.4010   -0.5860    1.2420 C.3     1  UNL1       -0.0039
      9  C7         1.7760   -1.4810    0.1880 C.3     1  UNL1        0.0184
     10  N3         1.5770   -0.6880   -0.9880 N.am    1  UNL1       -0.2939
     11  C8         0.2560   -0.6180   -1.4660 C.2     1  UNL1        0.2495
     12  O1        -0.0730    0.0460   -2.4970 O.2     1  UNL1       -0.2699
     13  C9        -0.8240   -1.3140   -0.7930 C.ar    1  UNL1        0.0723
     14  C10       -1.5930   -0.7660    0.2170 C.ar    1  UNL1       -0.0433
     15  C11       -2.6050   -1.4360    0.8380 C.ar    1  UNL1       -0.0406
     16  C12       -3.4740   -0.9070    1.9100 C.3     1  UNL1        0.0171
     17  C13       -4.8290   -0.6950    1.3510 C.ar    1  UNL1        0.0736
     18  N4        -5.7750   -1.6640    1.4970 N.ar    1  UNL1       -0.1750
     19  N5        -6.9820   -1.5840    0.9960 N.ar    1  UNL1       -0.2425
     20  C14       -7.3570   -0.5130    0.2940 C.ar    1  UNL1        0.2725
     21  O2        -8.5320   -0.4230   -0.2010 O.2     1  UNL1       -0.2658
     22  C15       -6.4650    0.5120    0.1010 C.ar    1  UNL1        0.0496
     23  C16       -6.8620    1.6350   -0.6200 C.ar    1  UNL1       -0.0487
     24  C17       -5.9490    2.6500   -0.7830 C.ar    1  UNL1       -0.0610
     25  C18       -4.6820    2.5630   -0.2520 C.ar    1  UNL1       -0.0611
     26  C19       -4.2860    1.4480    0.4630 C.ar    1  UNL1       -0.0521
     27  C20       -5.1830    0.4140    0.6400 C.ar    1  UNL1        0.0106
     28  C21       -2.8820   -2.7430    0.4340 C.ar    1  UNL1       -0.0555
     29  C22       -2.1330   -3.2950   -0.5600 C.ar    1  UNL1       -0.0254
     30  C23       -1.1080   -2.6040   -1.1810 C.ar    1  UNL1        0.1355
     31  F1        -0.3910   -3.2170   -2.1760 F       1  UNL1       -0.2047
     32  C24        2.5680    0.0360   -1.7270 C.3     1  UNL1        0.0480
     33  C25        3.2980    0.9470   -0.7890 C.3     1  UNL1        0.0631
     34 H           5.3212    2.8844    1.7893 H       1  UNL1        0.2880
     35 H           3.8354    2.0479    1.8032 H       1  UNL1        0.2880
     36 H           8.3894    2.0634    0.7389 H       1  UNL1        0.0316
     37 H           8.0029    3.1801   -0.2078 H       1  UNL1        0.0316
     38 H           7.4681    1.2287   -2.0436 H       1  UNL1        0.0316
     39 H           8.0955    0.1481   -1.1808 H       1  UNL1        0.0316
     40 H           3.4310    0.6218   -0.2442 H       1  UNL1        0.2495
     41 H           4.2650    0.0111    1.9719 H       1  UNL1        0.0693
     42 H           4.2446   -1.4556    0.9360 H       1  UNL1        0.0693
     43 H           1.9654    0.3883    1.1652 H       1  UNL1        0.0316
     44 H           2.2116   -1.0313    2.1963 H       1  UNL1        0.0316
     45 H           0.8374   -1.8570    0.5381 H       1  UNL1        0.0466
     46 H           2.4122   -2.3150   -0.0233 H       1  UNL1        0.0466
     47 H          -1.3903    0.2006    0.5164 H       1  UNL1        0.0629
     48 H          -3.0814    0.0217    2.2682 H       1  UNL1        0.0377
     49 H          -3.5164   -1.5996    2.7245 H       1  UNL1        0.0377
     50 H          -7.6189   -2.3210    1.1386 H       1  UNL1        0.1921
     51 H          -7.8112    1.7033   -1.0193 H       1  UNL1        0.0625
     52 H          -6.2187    3.4931   -1.3135 H       1  UNL1        0.0618
     53 H          -4.0183    3.3412   -0.3896 H       1  UNL1        0.0618
     54 H          -3.3345    1.3897    0.8583 H       1  UNL1        0.0624
     55 H          -3.6408   -3.2812    0.8807 H       1  UNL1        0.0621
     56 H          -2.3367   -4.2611   -0.8602 H       1  UNL1        0.0646
     57 H           2.0948    0.6132   -2.4937 H       1  UNL1        0.0501
     58 H           3.2558   -0.6473   -2.1798 H       1  UNL1        0.0501
     59 H           3.7500    1.7300   -1.3612 H       1  UNL1        0.0709
     60 H           2.5790    1.3177   -0.0886 H       1  UNL1        0.0709
@<TRIPOS>UNITY_ATOM_ATTR
6 1
charge 1
@<TRIPOS>BOND
     1     1     2    1
     2     2     3    2
     3     2     6    1
     4     3     4    1
     5     3     5    1
     6     4     5    1
     7     6     7    1
     8     6    33    1
     9     7     8    1
    10     8     9    1
    11     9    10    1
    12    10    11   am
    13    10    32    1
    14    11    12    2
    15    11    13    1
    16    13    14   ar
    17    13    30   ar
    18    14    15   ar
    19    15    16    1
    20    15    28   ar
    21    16    17    1
    22    17    18   ar
    23    17    27   ar
    24    18    19   ar
    25    19    20   ar
    26    20    21    2
    27    20    22   ar
    28    22    23   ar
    29    22    27   ar
    30    23    24   ar
    31    24    25   ar
    32    25    26   ar
    33    26    27   ar
    34    28    29   ar
    35    29    30   ar
    36    30    31    1
    37    32    33    1
    38     1    34    1
    39     1    35    1
    40     4    36    1
    41     4    37    1
    42     5    38    1
    43     5    39    1
    44     6    40    1
    45     7    41    1
    46     7    42    1
    47     8    43    1
    48     8    44    1
    49     9    45    1
    50     9    46    1
    51    14    47    1
    52    16    48    1
    53    16    49    1
    54    19    50    1
    55    23    51    1
    56    24    52    1
    57    25    53    1
    58    26    54    1
    59    28    55    1
    60    29    56    1
    61    32    57    1
    62    32    58    1
    63    33    59    1
    64    33    60    1
@<TRIPOS>MOLECULE
../data/bude_mols_rdkit_confs_charged/molecule_92.pdb
 60 64 0 0 0
SMALL
GASTEIGER

@<TRIPOS>ATOM
      1  N1         6.3430   -1.8380    0.8240 N.pl3   1  UNL1       -0.2541
      2  C1         5.6910   -0.5920    0.6240 C.2     1  UNL1        0.2207
      3  C2         6.4090    0.5090    0.6440 C.2     1  UNL1        0.0118
      4  C3         7.7430    1.2190    0.7890 C.3     1  UNL1       -0.0203
      5  C4         6.5500    2.0130    0.5440 C.3     1  UNL1       -0.0203
      6  N2         4.2740   -0.5090    0.4000 N.pl3   1  UNL1       -0.3473
      7  C5         4.0950    0.1900   -0.8410 C.3     1  UNL1        0.0485
      8  C6         2.9600   -0.3240   -1.6770 C.3     1  UNL1       -0.0039
      9  C7         1.6230   -0.1620   -1.0370 C.3     1  UNL1        0.0184
     10  N3         1.4780   -0.9570    0.1410 N.am    1  UNL1       -0.2939
     11  C8         0.3170   -0.6910    0.9350 C.2     1  UNL1        0.2495
     12  O1         0.1030   -1.3360    1.9910 O.2     1  UNL1       -0.2699
     13  C9        -0.6270    0.3400    0.5130 C.ar    1  UNL1        0.0723
     14  C10       -1.6450   -0.0250   -0.2980 C.ar    1  UNL1       -0.0433
     15  C11       -2.5760    0.9020   -0.7400 C.ar    1  UNL1       -0.0406
     16  C12       -3.6820    0.4590   -1.6640 C.3     1  UNL1        0.0171
     17  C13       -4.7110   -0.3370   -0.9910 C.ar    1  UNL1        0.0736
     18  N4        -4.5950   -1.7040   -1.0560 N.ar    1  UNL1       -0.1750
     19  N5        -5.4010   -2.5360   -0.4750 N.ar    1  UNL1       -0.2425
     20  C14       -6.4460   -2.1240    0.2590 C.ar    1  UNL1        0.2725
     21  O2        -7.2220   -2.9190    0.8190 O.2     1  UNL1       -0.2658
     22  C15       -6.6530   -0.7640    0.3870 C.ar    1  UNL1        0.0496
     23  C16       -7.6990   -0.2420    1.1060 C.ar    1  UNL1       -0.0487
     24  C17       -7.9030    1.1270    1.2170 C.ar    1  UNL1       -0.0610
     25  C18       -7.0210    1.9630    0.5800 C.ar    1  UNL1       -0.0611
     26  C19       -5.9600    1.4830   -0.1500 C.ar    1  UNL1       -0.0521
     27  C20       -5.7650    0.1130   -0.2520 C.ar    1  UNL1        0.0106
     28  C21       -2.4410    2.1990   -0.3360 C.ar    1  UNL1       -0.0555
     29  C22       -1.3880    2.5490    0.4970 C.ar    1  UNL1       -0.0254
     30  C23       -0.4600    1.6190    0.9360 C.ar    1  UNL1        0.1355
     31  F1         0.5630    1.9240    1.7370 F       1  UNL1       -0.2047
     32  C24        2.3180   -2.0010    0.6660 C.3     1  UNL1        0.0480
     33  C25        3.7670   -1.8500    0.3790 C.3     1  UNL1        0.0631
     34 H           7.3154   -1.8660    0.9754 H       1  UNL1        0.2880
     35 H           5.8225   -2.6736    0.8112 H       1  UNL1        0.2880
     36 H           8.4834    1.1214    0.0227 H       1  UNL1        0.0316
     37 H           8.5098    1.2287    1.5352 H       1  UNL1        0.0316
     38 H           6.1580    2.6358    1.3207 H       1  UNL1        0.0316
     39 H           6.2747    2.7430   -0.1883 H       1  UNL1        0.0316
     40 H           3.8779   -0.7861   -0.4577 H       1  UNL1        0.2495
     41 H           4.9974    0.1018   -1.4092 H       1  UNL1        0.0693
     42 H           3.8598    1.2038   -0.5923 H       1  UNL1        0.0693
     43 H           3.1217   -1.3653   -1.8627 H       1  UNL1        0.0316
     44 H           2.9479    0.2541   -2.5773 H       1  UNL1        0.0316
     45 H           0.8694   -0.4502   -1.7398 H       1  UNL1        0.0466
     46 H           1.5232    0.8639   -0.7500 H       1  UNL1        0.0466
     47 H          -1.7305   -1.0102   -0.5930 H       1  UNL1        0.0629
     48 H          -3.2546   -0.1304   -2.4481 H       1  UNL1        0.0377
     49 H          -4.1567    1.3418   -2.0384 H       1  UNL1        0.0377
     50 H          -5.2413   -3.5023   -0.5755 H       1  UNL1        0.1921
     51 H          -8.3531   -0.8858    1.5780 H       1  UNL1        0.0625
     52 H          -8.6940    1.5042    1.7621 H       1  UNL1        0.0618
     53 H          -7.1585    2.9833    0.6512 H       1  UNL1        0.0618
     54 H          -5.3133    2.1365   -0.6187 H       1  UNL1        0.0624
     55 H          -3.1170    2.9137   -0.6478 H       1  UNL1        0.0621
     56 H          -1.2934    3.5314    0.7985 H       1  UNL1        0.0646
     57 H           1.9925   -2.9301    0.2469 H       1  UNL1        0.0501
     58 H           2.2194   -1.9548    1.7304 H       1  UNL1        0.0501
     59 H           4.3064   -2.4157    1.1097 H       1  UNL1        0.0709
     60 H           3.9002   -2.1938   -0.6255 H       1  UNL1        0.0709
@<TRIPOS>UNITY_ATOM_ATTR
6 1
charge 1
@<TRIPOS>BOND
     1     1     2    1
     2     2     3    2
     3     2     6    1
     4     3     4    1
     5     3     5    1
     6     4     5    1
     7     6     7    1
     8     6    33    1
     9     7     8    1
    10     8     9    1
    11     9    10    1
    12    10    11   am
    13    10    32    1
    14    11    12    2
    15    11    13    1
    16    13    14   ar
    17    13    30   ar
    18    14    15   ar
    19    15    16    1
    20    15    28   ar
    21    16    17    1
    22    17    18   ar
    23    17    27   ar
    24    18    19   ar
    25    19    20   ar
    26    20    21    2
    27    20    22   ar
    28    22    23   ar
    29    22    27   ar
    30    23    24   ar
    31    24    25   ar
    32    25    26   ar
    33    26    27   ar
    34    28    29   ar
    35    29    30   ar
    36    30    31    1
    37    32    33    1
    38     1    34    1
    39     1    35    1
    40     4    36    1
    41     4    37    1
    42     5    38    1
    43     5    39    1
    44     6    40    1
    45     7    41    1
    46     7    42    1
    47     8    43    1
    48     8    44    1
    49     9    45    1
    50     9    46    1
    51    14    47    1
    52    16    48    1
    53    16    49    1
    54    19    50    1
    55    23    51    1
    56    24    52    1
    57    25    53    1
    58    26    54    1
    59    28    55    1
    60    29    56    1
    61    32    57    1
    62    32    58    1
    63    33    59    1
    64    33    60    1
@<TRIPOS>MOLECULE
../data/bude_mols_rdkit_confs_charged/molecule_92.pdb
 60 64 0 0 0
SMALL
GASTEIGER

@<TRIPOS>ATOM
      1  N1         5.7230    1.2840   -0.7000 N.pl3   1  UNL1       -0.2541
      2  C1         4.8210    0.3950   -0.0650 C.2     1  UNL1        0.2207
      3  C2         5.2540   -0.7620    0.3960 C.2     1  UNL1        0.0118
      4  C3         6.3890   -1.7390    0.6100 C.3     1  UNL1       -0.0203
      5  C4         5.0360   -2.0820    1.0840 C.3     1  UNL1       -0.0203
      6  N2         3.4590    0.7590    0.0680 N.pl3   1  UNL1       -0.3473
      7  C5         2.9040    0.0030    1.1610 C.3     1  UNL1        0.0485
      8  C6         1.6180    0.5400    1.6890 C.3     1  UNL1       -0.0039
      9  C7         0.6400    0.6670    0.5430 C.3     1  UNL1        0.0184
     10  N3         1.1180    1.6710   -0.3620 N.am    1  UNL1       -0.2939
     11  C8         0.6540    1.6040   -1.6980 C.2     1  UNL1        0.2495
     12  O1         1.0160    2.4330   -2.5520 O.2     1  UNL1       -0.2699
     13  C9        -0.2620    0.5460   -2.0710 C.ar    1  UNL1        0.0723
     14  C10       -1.6470    0.7650   -1.9490 C.ar    1  UNL1       -0.0433
     15  C11       -2.5480   -0.1820   -2.2790 C.ar    1  UNL1       -0.0406
     16  C12       -4.0030   -0.0190   -2.1610 C.3     1  UNL1        0.0171
     17  C13       -4.6360   -0.7810   -1.0860 C.ar    1  UNL1        0.0736
     18  N4        -5.2050   -2.0010   -1.3590 N.ar    1  UNL1       -0.1750
     19  N5        -5.7520   -2.7560   -0.4260 N.ar    1  UNL1       -0.2425
     20  C14       -5.8030   -2.4030    0.8620 C.ar    1  UNL1        0.2725
     21  O2        -6.3190   -3.1100    1.7610 O.2     1  UNL1       -0.2658
     22  C15       -5.2510   -1.1830    1.2180 C.ar    1  UNL1        0.0496
     23  C16       -5.2850   -0.7610    2.5290 C.ar    1  UNL1       -0.0487
     24  C17       -4.7610    0.4480    2.9180 C.ar    1  UNL1       -0.0610
     25  C18       -4.1880    1.2460    1.9480 C.ar    1  UNL1       -0.0611
     26  C19       -4.1610    0.8040    0.6250 C.ar    1  UNL1       -0.0521
     27  C20       -4.6790   -0.3980    0.2300 C.ar    1  UNL1        0.0106
     28  C21       -2.0700   -1.4080   -2.7550 C.ar    1  UNL1       -0.0555
     29  C22       -0.7180   -1.6350   -2.8800 C.ar    1  UNL1       -0.0254
     30  C23        0.1890   -0.6770   -2.5450 C.ar    1  UNL1        0.1355
     31  F1         1.5300   -0.8450   -2.6470 F       1  UNL1       -0.2047
     32  C24        2.0380    2.7620   -0.0440 C.3     1  UNL1        0.0480
     33  C25        3.4000    2.1880    0.2690 C.3     1  UNL1        0.0631
     34 H           6.6713    1.0377   -0.7960 H       1  UNL1        0.2880
     35 H           5.4015    2.1481   -1.0452 H       1  UNL1        0.2880
     36 H           7.1608   -1.5141    1.3161 H       1  UNL1        0.0316
     37 H           7.1070   -2.2117   -0.0271 H       1  UNL1        0.0316
     38 H           4.4795   -2.8526    0.5928 H       1  UNL1        0.0316
     39 H           4.6233   -2.3785    2.0256 H       1  UNL1        0.0316
     40 H           3.0446    0.1696    0.7389 H       1  UNL1        0.2495
     41 H           3.6167   -0.0043    1.9591 H       1  UNL1        0.0693
     42 H           2.6941   -0.9750    0.7811 H       1  UNL1        0.0693
     43 H           1.7828    1.5008    2.1301 H       1  UNL1        0.0316
     44 H           1.2246   -0.1207    2.4331 H       1  UNL1        0.0316
     45 H          -0.3207    0.9501    0.9196 H       1  UNL1        0.0466
     46 H           0.5524   -0.2700    0.0338 H       1  UNL1        0.0466
     47 H          -1.9820    1.6755   -1.5973 H       1  UNL1        0.0629
     48 H          -4.4451   -0.3244   -3.0863 H       1  UNL1        0.0377
     49 H          -4.1652    1.0121   -1.9254 H       1  UNL1        0.0377
     50 H          -6.1412   -3.6206   -0.6910 H       1  UNL1        0.1921
     51 H          -5.7170   -1.3714    3.2402 H       1  UNL1        0.0625
     52 H          -4.7947    0.7501    3.9042 H       1  UNL1        0.0618
     53 H          -3.7832    2.1614    2.1993 H       1  UNL1        0.0618
     54 H          -3.7301    1.4125   -0.0885 H       1  UNL1        0.0624
     55 H          -2.7383   -2.1501   -3.0152 H       1  UNL1        0.0621
     56 H          -0.3868   -2.5463   -3.2334 H       1  UNL1        0.0646
     57 H           1.6734    3.3016    0.8050 H       1  UNL1        0.0501
     58 H           2.1111    3.4258   -0.8800 H       1  UNL1        0.0501
     59 H           4.1230    2.6539   -0.3675 H       1  UNL1        0.0709
     60 H           3.6030    2.3790    1.3020 H       1  UNL1        0.0709
@<TRIPOS>UNITY_ATOM_ATTR
6 1
charge 1
@<TRIPOS>BOND
     1     1     2    1
     2     2     3    2
     3     2     6    1
     4     3     4    1
     5     3     5    1
     6     4     5    1
     7     6     7    1
     8     6    33    1
     9     7     8    1
    10     8     9    1
    11     9    10    1
    12    10    11   am
    13    10    32    1
    14    11    12    2
    15    11    13    1
    16    13    14   ar
    17    13    30   ar
    18    14    15   ar
    19    15    16    1
    20    15    28   ar
    21    16    17    1
    22    17    18   ar
    23    17    27   ar
    24    18    19   ar
    25    19    20   ar
    26    20    21    2
    27    20    22   ar
    28    22    23   ar
    29    22    27   ar
    30    23    24   ar
    31    24    25   ar
    32    25    26   ar
    33    26    27   ar
    34    28    29   ar
    35    29    30   ar
    36    30    31    1
    37    32    33    1
    38     1    34    1
    39     1    35    1
    40     4    36    1
    41     4    37    1
    42     5    38    1
    43     5    39    1
    44     6    40    1
    45     7    41    1
    46     7    42    1
    47     8    43    1
    48     8    44    1
    49     9    45    1
    50     9    46    1
    51    14    47    1
    52    16    48    1
    53    16    49    1
    54    19    50    1
    55    23    51    1
    56    24    52    1
    57    25    53    1
    58    26    54    1
    59    28    55    1
    60    29    56    1
    61    32    57    1
    62    32    58    1
    63    33    59    1
    64    33    60    1
@<TRIPOS>MOLECULE
../data/bude_mols_rdkit_confs_charged/molecule_92.pdb
 60 64 0 0 0
SMALL
GASTEIGER

@<TRIPOS>ATOM
      1  N1         6.1500   -0.9800   -1.6930 N.pl3   1  UNL1       -0.2541
      2  C1         5.8280   -0.0650   -0.6580 C.2     1  UNL1        0.2207
      3  C2         6.8030    0.5750   -0.0040 C.2     1  UNL1        0.0118
      4  C3         7.2890    1.5400    1.0370 C.3     1  UNL1       -0.0203
      5  C4         8.2610    0.8170    0.1840 C.3     1  UNL1       -0.0203
      6  N2         4.4500    0.1680   -0.3170 N.pl3   1  UNL1       -0.3473
      7  C5         3.6850   -0.9580   -0.7880 C.3     1  UNL1        0.0485
      8  C6         2.3590   -0.4260   -1.2820 C.3     1  UNL1       -0.0039
      9  C7         1.7620    0.5680   -0.3100 C.3     1  UNL1        0.0184
     10  N3         1.9140    0.1670    1.0630 N.am    1  UNL1       -0.2939
     11  C8         0.7310    0.0440    1.7940 C.2     1  UNL1        0.2495
     12  O1         0.8030   -0.3090    3.0160 O.2     1  UNL1       -0.2699
     13  C9        -0.5980    0.2870    1.2710 C.ar    1  UNL1        0.0723
     14  C10       -1.3650   -0.6900    0.6770 C.ar    1  UNL1       -0.0433
     15  C11       -2.6300   -0.4420    0.1780 C.ar    1  UNL1       -0.0406
     16  C12       -3.4390   -1.5160   -0.4680 C.3     1  UNL1        0.0171
     17  C13       -4.7230   -1.0020   -1.0010 C.ar    1  UNL1        0.0736
     18  N4        -4.8200   -0.8010   -2.3280 N.ar    1  UNL1       -0.1750
     19  N5        -5.9480   -0.3360   -2.8810 N.ar    1  UNL1       -0.2425
     20  C14       -7.0260   -0.0500   -2.1460 C.ar    1  UNL1        0.2725
     21  O2        -8.0680    0.3860   -2.7010 O.2     1  UNL1       -0.2658
     22  C15       -7.0010   -0.2300   -0.7780 C.ar    1  UNL1        0.0496
     23  C16       -8.1040    0.0570    0.0010 C.ar    1  UNL1       -0.0487
     24  C17       -8.0370   -0.1380    1.3570 C.ar    1  UNL1       -0.0610
     25  C18       -6.8840   -0.6150    1.9360 C.ar    1  UNL1       -0.0611
     26  C19       -5.7780   -0.9010    1.1390 C.ar    1  UNL1       -0.0521
     27  C20       -5.8100   -0.7170   -0.2240 C.ar    1  UNL1        0.0106
     28  C21       -3.1210    0.8390    0.2910 C.ar    1  UNL1       -0.0555
     29  C22       -2.3870    1.8670    0.8840 C.ar    1  UNL1       -0.0254
     30  C23       -1.1200    1.5560    1.3680 C.ar    1  UNL1        0.1355
     31  F1        -0.3660    2.5140    1.9520 F       1  UNL1       -0.2047
     32  C24        3.1370   -0.1180    1.7600 C.3     1  UNL1        0.0480
     33  C25        4.3740    0.3840    1.0830 C.3     1  UNL1        0.0631
     34 H           7.0914   -1.1432   -1.9305 H       1  UNL1        0.2880
     35 H           5.4321   -1.4518   -2.1739 H       1  UNL1        0.2880
     36 H           7.2026    1.2957    2.0751 H       1  UNL1        0.0316
     37 H           7.0989    2.5683    1.2634 H       1  UNL1        0.0316
     38 H           8.8140    1.3482   -0.5623 H       1  UNL1        0.0316
     39 H           9.1096    0.1930    0.3722 H       1  UNL1        0.0316
     40 H           4.9685    0.5400    0.4327 H       1  UNL1        0.2495
     41 H           3.5263   -1.6525    0.0104 H       1  UNL1        0.0693
     42 H           4.2046   -1.4673   -1.5725 H       1  UNL1        0.0693
     43 H           1.6800   -1.2440   -1.4034 H       1  UNL1        0.0316
     44 H           2.5245    0.0740   -2.2134 H       1  UNL1        0.0316
     45 H           0.7183    0.6692   -0.5228 H       1  UNL1        0.0466
     46 H           2.2847    1.4933   -0.4346 H       1  UNL1        0.0466
     47 H          -0.9805   -1.6447    0.6014 H       1  UNL1        0.0629
     48 H          -3.6455   -2.2756    0.2567 H       1  UNL1        0.0377
     49 H          -2.8739   -1.9060   -1.2886 H       1  UNL1        0.0377
     50 H          -5.9834   -0.2014   -3.8556 H       1  UNL1        0.1921
     51 H          -8.9697    0.4145   -0.4323 H       1  UNL1        0.0625
     52 H          -8.8569    0.0745    1.9467 H       1  UNL1        0.0618
     53 H          -6.8386   -0.7604    2.9567 H       1  UNL1        0.0618
     54 H          -4.9163   -1.2585    1.5803 H       1  UNL1        0.0624
     55 H          -4.0634    1.0460   -0.0751 H       1  UNL1        0.0621
     56 H          -2.7696    2.8224    0.9607 H       1  UNL1        0.0646
     57 H           3.2216   -1.1795    1.8644 H       1  UNL1        0.0501
     58 H           3.0768    0.3936    2.6978 H       1  UNL1        0.0501
     59 H           4.4360    1.4382    1.2551 H       1  UNL1        0.0709
     60 H           5.1810   -0.1778    1.5050 H       1  UNL1        0.0709
@<TRIPOS>UNITY_ATOM_ATTR
6 1
charge 1
@<TRIPOS>BOND
     1     1     2    1
     2     2     3    2
     3     2     6    1
     4     3     4    1
     5     3     5    1
     6     4     5    1
     7     6     7    1
     8     6    33    1
     9     7     8    1
    10     8     9    1
    11     9    10    1
    12    10    11   am
    13    10    32    1
    14    11    12    2
    15    11    13    1
    16    13    14   ar
    17    13    30   ar
    18    14    15   ar
    19    15    16    1
    20    15    28   ar
    21    16    17    1
    22    17    18   ar
    23    17    27   ar
    24    18    19   ar
    25    19    20   ar
    26    20    21    2
    27    20    22   ar
    28    22    23   ar
    29    22    27   ar
    30    23    24   ar
    31    24    25   ar
    32    25    26   ar
    33    26    27   ar
    34    28    29   ar
    35    29    30   ar
    36    30    31    1
    37    32    33    1
    38     1    34    1
    39     1    35    1
    40     4    36    1
    41     4    37    1
    42     5    38    1
    43     5    39    1
    44     6    40    1
    45     7    41    1
    46     7    42    1
    47     8    43    1
    48     8    44    1
    49     9    45    1
    50     9    46    1
    51    14    47    1
    52    16    48    1
    53    16    49    1
    54    19    50    1
    55    23    51    1
    56    24    52    1
    57    25    53    1
    58    26    54    1
    59    28    55    1
    60    29    56    1
    61    32    57    1
    62    32    58    1
    63    33    59    1
    64    33    60    1
@<TRIPOS>MOLECULE
../data/bude_mols_rdkit_confs_charged/molecule_92.pdb
 60 64 0 0 0
SMALL
GASTEIGER

@<TRIPOS>ATOM
      1  N1         5.6870    0.5530   -1.3760 N.pl3   1  UNL1       -0.2541
      2  C1         4.8190    0.6240   -0.2590 C.2     1  UNL1        0.2207
      3  C2         4.4610    1.7890    0.2450 C.2     1  UNL1        0.0118
      4  C3         3.7050    2.6070    1.2480 C.3     1  UNL1       -0.0203
      5  C4         4.5320    3.2590    0.2070 C.3     1  UNL1       -0.0203
      6  N2         4.2970   -0.5630    0.3680 N.pl3   1  UNL1       -0.3473
      7  C5         4.6770   -1.6810   -0.4500 C.3     1  UNL1        0.0485
      8  C6         3.8420   -1.7200   -1.7190 C.3     1  UNL1       -0.0039
      9  C7         2.8220   -2.8310   -1.5730 C.3     1  UNL1        0.0184
     10  N3         1.8900   -2.4330   -0.5420 N.am    1  UNL1       -0.2939
     11  C8         0.5120   -2.7040   -0.8080 C.2     1  UNL1        0.2495
     12  O1         0.1840   -3.2540   -1.8890 O.2     1  UNL1       -0.2699
     13  C9        -0.5350   -2.3570    0.1450 C.ar    1  UNL1        0.0723
     14  C10       -1.1610   -1.1300    0.1150 C.ar    1  UNL1       -0.0433
     15  C11       -2.1620   -0.8020    1.0290 C.ar    1  UNL1       -0.0406
     16  C12       -2.8360    0.5300    0.9920 C.3     1  UNL1        0.0171
     17  C13       -4.0200    0.5310    0.1270 C.ar    1  UNL1        0.0736
     18  N4        -4.4590   -0.5180   -0.5890 N.ar    1  UNL1       -0.1750
     19  N5        -5.5450   -0.4420   -1.3560 N.ar    1  UNL1       -0.2425
     20  C14       -6.2770    0.6880   -1.4690 C.ar    1  UNL1        0.2725
     21  O2        -7.3100    0.7540   -2.2010 O.2     1  UNL1       -0.2658
     22  C15       -5.8730    1.7960   -0.7570 C.ar    1  UNL1        0.0496
     23  C16       -6.5790    2.9840   -0.8270 C.ar    1  UNL1       -0.0487
     24  C17       -6.1740    4.1020   -0.1090 C.ar    1  UNL1       -0.0610
     25  C18       -5.0480    4.0100    0.6820 C.ar    1  UNL1       -0.0611
     26  C19       -4.3670    2.8130    0.7300 C.ar    1  UNL1       -0.0521
     27  C20       -4.7480    1.6980    0.0310 C.ar    1  UNL1        0.0106
     28  C21       -2.5570   -1.7100    1.9980 C.ar    1  UNL1       -0.0555
     29  C22       -1.9220   -2.9300    2.0130 C.ar    1  UNL1       -0.0254
     30  C23       -0.9300   -3.2630    1.1120 C.ar    1  UNL1        0.1355
     31  F1        -0.3260   -4.4970    1.1720 F       1  UNL1       -0.2047
     32  C24        2.2060   -1.7940    0.7190 C.3     1  UNL1        0.0480
     33  C25        2.8640   -0.4530    0.5380 C.3     1  UNL1        0.0631
     34 H           6.0299    1.3796   -1.7862 H       1  UNL1        0.2880
     35 H           5.9474   -0.3230   -1.7422 H       1  UNL1        0.2880
     36 H           4.0172    2.6250    2.2713 H       1  UNL1        0.0316
     37 H           2.6841    2.6738    1.5614 H       1  UNL1        0.0316
     38 H           4.0597    3.7943   -0.5901 H       1  UNL1        0.0316
     39 H           5.3291    3.9728    0.2193 H       1  UNL1        0.0316
     40 H           3.6241   -0.8172   -0.3041 H       1  UNL1        0.2495
     41 H           4.5255   -2.5867    0.0992 H       1  UNL1        0.0693
     42 H           5.7081   -1.5797   -0.7172 H       1  UNL1        0.0693
     43 H           4.4715   -1.9133   -2.5623 H       1  UNL1        0.0316
     44 H           3.3510   -0.7815   -1.8704 H       1  UNL1        0.0316
     45 H           3.3104   -3.7407   -1.2924 H       1  UNL1        0.0466
     46 H           2.3114   -2.9977   -2.4984 H       1  UNL1        0.0466
     47 H          -0.8832   -0.4388   -0.5992 H       1  UNL1        0.0629
     48 H          -2.1416    1.2569    0.6255 H       1  UNL1        0.0377
     49 H          -3.1568    0.7622    1.9860 H       1  UNL1        0.0377
     50 H          -5.8252   -1.2399   -1.8601 H       1  UNL1        0.1921
     51 H          -7.4201    3.0403   -1.4223 H       1  UNL1        0.0625
     52 H          -6.7056    4.9847   -0.1664 H       1  UNL1        0.0618
     53 H          -4.7214    4.8226    1.2279 H       1  UNL1        0.0618
     54 H          -3.5252    2.7533    1.3241 H       1  UNL1        0.0624
     55 H          -3.2967   -1.4806    2.6800 H       1  UNL1        0.0621
     56 H          -2.1978   -3.6237    2.7256 H       1  UNL1        0.0646
     57 H           2.8683   -2.4295    1.2690 H       1  UNL1        0.0501
     58 H           1.2862   -1.6362    1.2423 H       1  UNL1        0.0501
     59 H           2.4500    0.0194   -0.3282 H       1  UNL1        0.0709
     60 H           2.6823    0.1227    1.4214 H       1  UNL1        0.0709
@<TRIPOS>UNITY_ATOM_ATTR
6 1
charge 1
@<TRIPOS>BOND
     1     1     2    1
     2     2     3    2
     3     2     6    1
     4     3     4    1
     5     3     5    1
     6     4     5    1
     7     6     7    1
     8     6    33    1
     9     7     8    1
    10     8     9    1
    11     9    10    1
    12    10    11   am
    13    10    32    1
    14    11    12    2
    15    11    13    1
    16    13    14   ar
    17    13    30   ar
    18    14    15   ar
    19    15    16    1
    20    15    28   ar
    21    16    17    1
    22    17    18   ar
    23    17    27   ar
    24    18    19   ar
    25    19    20   ar
    26    20    21    2
    27    20    22   ar
    28    22    23   ar
    29    22    27   ar
    30    23    24   ar
    31    24    25   ar
    32    25    26   ar
    33    26    27   ar
    34    28    29   ar
    35    29    30   ar
    36    30    31    1
    37    32    33    1
    38     1    34    1
    39     1    35    1
    40     4    36    1
    41     4    37    1
    42     5    38    1
    43     5    39    1
    44     6    40    1
    45     7    41    1
    46     7    42    1
    47     8    43    1
    48     8    44    1
    49     9    45    1
    50     9    46    1
    51    14    47    1
    52    16    48    1
    53    16    49    1
    54    19    50    1
    55    23    51    1
    56    24    52    1
    57    25    53    1
    58    26    54    1
    59    28    55    1
    60    29    56    1
    61    32    57    1
    62    32    58    1
    63    33    59    1
    64    33    60    1
@<TRIPOS>MOLECULE
../data/bude_mols_rdkit_confs_charged/molecule_92.pdb
 60 64 0 0 0
SMALL
GASTEIGER

@<TRIPOS>ATOM
      1  N1         6.0280    1.4810   -0.3020 N.pl3   1  UNL1       -0.2541
      2  C1         5.8290    0.0940   -0.1930 C.2     1  UNL1        0.2207
      3  C2         6.6850   -0.7240   -0.7480 C.2     1  UNL1        0.0118
      4  C3         7.1940   -2.1200   -1.0900 C.3     1  UNL1       -0.0203
      5  C4         7.9500   -0.9710   -1.5560 C.3     1  UNL1       -0.0203
      6  N2         4.7050   -0.4710    0.5160 N.pl3   1  UNL1       -0.3473
      7  C5         4.2000    0.5950    1.4560 C.3     1  UNL1        0.0485
      8  C6         2.9750    1.2890    0.9570 C.3     1  UNL1       -0.0039
      9  C7         1.6710    0.6150    0.8200 C.3     1  UNL1        0.0184
     10  N3         1.4190   -0.2050   -0.3530 N.am    1  UNL1       -0.2939
     11  C8         0.1820   -0.1310   -1.0040 C.2     1  UNL1        0.2495
     12  O1        -0.0280   -0.8360   -2.0080 O.2     1  UNL1       -0.2699
     13  C9        -0.8470    0.7660   -0.5060 C.ar    1  UNL1        0.0723
     14  C10       -1.7580    0.3080    0.4400 C.ar    1  UNL1       -0.0433
     15  C11       -2.7490    1.0880    0.9530 C.ar    1  UNL1       -0.0406
     16  C12       -3.7050    0.5720    1.9420 C.3     1  UNL1        0.0171
     17  C13       -5.0780    0.4150    1.4730 C.ar    1  UNL1        0.0736
     18  N4        -5.9900    1.4060    1.7170 N.ar    1  UNL1       -0.1750
     19  N5        -7.2400    1.3570    1.2920 N.ar    1  UNL1       -0.2425
     20  C14       -7.7280    0.3320    0.5820 C.ar    1  UNL1        0.2725
     21  O2        -8.9270    0.3560    0.2110 O.2     1  UNL1       -0.2658
     22  C15       -6.8620   -0.6970    0.3040 C.ar    1  UNL1        0.0496
     23  C16       -7.3640   -1.7600   -0.4160 C.ar    1  UNL1       -0.0487
     24  C17       -6.5000   -2.8050   -0.6870 C.ar    1  UNL1       -0.0610
     25  C18       -5.1810   -2.7870   -0.2530 C.ar    1  UNL1       -0.0611
     26  C19       -4.7030   -1.7170    0.4630 C.ar    1  UNL1       -0.0521
     27  C20       -5.5340   -0.6500    0.7530 C.ar    1  UNL1        0.0106
     28  C21       -2.8130    2.3940    0.4810 C.ar    1  UNL1       -0.0555
     29  C22       -1.9260    2.8740   -0.4540 C.ar    1  UNL1       -0.0254
     30  C23       -0.9320    2.0690   -0.9600 C.ar    1  UNL1        0.1355
     31  F1        -0.0370    2.5150   -1.8880 F       1  UNL1       -0.2047
     32  C24        2.4330   -1.1370   -0.9000 C.3     1  UNL1        0.0480
     33  C25        3.6550   -0.8720   -0.2170 C.3     1  UNL1        0.0631
     34 H           6.8065    1.8295   -0.7936 H       1  UNL1        0.2880
     35 H           5.3889    2.1041    0.1133 H       1  UNL1        0.2880
     36 H           6.6580   -2.7235   -1.7924 H       1  UNL1        0.0316
     37 H           7.4334   -2.9908   -0.5162 H       1  UNL1        0.0316
     38 H           8.9053   -0.7544   -1.1254 H       1  UNL1        0.0316
     39 H           8.3005   -0.6456   -2.5132 H       1  UNL1        0.0316
     40 H           4.3333   -1.2832    0.1019 H       1  UNL1        0.2495
     41 H           4.9723    1.3233    1.5903 H       1  UNL1        0.0693
     42 H           3.9390    0.1111    2.3739 H       1  UNL1        0.0693
     43 H           3.2206    1.6570   -0.0172 H       1  UNL1        0.0316
     44 H           2.7786    1.9763    1.7532 H       1  UNL1        0.0316
     45 H           0.9210    1.3780    0.8356 H       1  UNL1        0.0466
     46 H           1.6592   -0.0855    1.6288 H       1  UNL1        0.0466
     47 H          -1.6792   -0.6673    0.7679 H       1  UNL1        0.0629
     48 H          -3.7163    1.2474    2.7718 H       1  UNL1        0.0377
     49 H          -3.3666   -0.4127    2.1885 H       1  UNL1        0.0377
     50 H          -7.8395    2.1078    1.5070 H       1  UNL1        0.1921
     51 H          -8.3439   -1.7752   -0.7393 H       1  UNL1        0.0625
     52 H          -6.8432   -3.6167   -1.2240 H       1  UNL1        0.0618
     53 H          -4.5577   -3.5806   -0.4693 H       1  UNL1        0.0618
     54 H          -3.7226   -1.7090    0.7851 H       1  UNL1        0.0624
     55 H          -3.5478    3.0218    0.8429 H       1  UNL1        0.0621
     56 H          -2.0071    3.8498   -0.7799 H       1  UNL1        0.0646
     57 H           2.5557   -0.9714   -1.9500 H       1  UNL1        0.0501
     58 H           2.1309   -2.1540   -0.7608 H       1  UNL1        0.0501
     59 H           3.7208   -1.8743    0.1516 H       1  UNL1        0.0709
     60 H           3.6709    0.0852   -0.6949 H       1  UNL1        0.0709
@<TRIPOS>UNITY_ATOM_ATTR
6 1
charge 1
@<TRIPOS>BOND
     1     1     2    1
     2     2     3    2
     3     2     6    1
     4     3     4    1
     5     3     5    1
     6     4     5    1
     7     6     7    1
     8     6    33    1
     9     7     8    1
    10     8     9    1
    11     9    10    1
    12    10    11   am
    13    10    32    1
    14    11    12    2
    15    11    13    1
    16    13    14   ar
    17    13    30   ar
    18    14    15   ar
    19    15    16    1
    20    15    28   ar
    21    16    17    1
    22    17    18   ar
    23    17    27   ar
    24    18    19   ar
    25    19    20   ar
    26    20    21    2
    27    20    22   ar
    28    22    23   ar
    29    22    27   ar
    30    23    24   ar
    31    24    25   ar
    32    25    26   ar
    33    26    27   ar
    34    28    29   ar
    35    29    30   ar
    36    30    31    1
    37    32    33    1
    38     1    34    1
    39     1    35    1
    40     4    36    1
    41     4    37    1
    42     5    38    1
    43     5    39    1
    44     6    40    1
    45     7    41    1
    46     7    42    1
    47     8    43    1
    48     8    44    1
    49     9    45    1
    50     9    46    1
    51    14    47    1
    52    16    48    1
    53    16    49    1
    54    19    50    1
    55    23    51    1
    56    24    52    1
    57    25    53    1
    58    26    54    1
    59    28    55    1
    60    29    56    1
    61    32    57    1
    62    32    58    1
    63    33    59    1
    64    33    60    1
@<TRIPOS>MOLECULE
../data/bude_mols_rdkit_confs_charged/molecule_92.pdb
 60 64 0 0 0
SMALL
GASTEIGER

@<TRIPOS>ATOM
      1  N1        -6.6930    0.4530   -0.5440 N.pl3   1  UNL1       -0.2541
      2  C1        -5.6320   -0.2890    0.0260 C.2     1  UNL1        0.2207
      3  C2        -5.7970   -1.0460    1.0890 C.2     1  UNL1        0.0118
      4  C3        -5.4810   -1.9730    2.1900 C.3     1  UNL1       -0.0203
      5  C4        -6.8790   -1.4840    2.1140 C.3     1  UNL1       -0.0203
      6  N2        -4.3660   -0.1870   -0.5840 N.pl3   1  UNL1       -0.3473
      7  C5        -4.0620    1.2340   -0.6630 C.3     1  UNL1        0.0485
      8  C6        -2.6950    1.3830   -1.2890 C.3     1  UNL1       -0.0039
      9  C7        -1.7180    1.7590   -0.2160 C.3     1  UNL1        0.0184
     10  N3        -1.6540    0.6980    0.7580 N.am    1  UNL1       -0.2939
     11  C8        -0.3570    0.4530    1.2850 C.2     1  UNL1        0.2495
     12  O1        -0.2490   -0.4680    2.1440 O.2     1  UNL1       -0.2699
     13  C9         0.7910    1.2340    0.8470 C.ar    1  UNL1        0.0723
     14  C10        1.5700    0.8220   -0.2460 C.ar    1  UNL1       -0.0433
     15  C11        2.6450    1.5560   -0.6490 C.ar    1  UNL1       -0.0406
     16  C12        3.4850    1.1370   -1.7810 C.3     1  UNL1        0.0171
     17  C13        4.8340    0.7040   -1.4560 C.ar    1  UNL1        0.0736
     18  N4         5.8730    1.5920   -1.5320 N.ar    1  UNL1       -0.1750
     19  N5         7.1070    1.2780   -1.2050 N.ar    1  UNL1       -0.2425
     20  C14        7.4530    0.0620   -0.7710 C.ar    1  UNL1        0.2725
     21  O2         8.6200   -0.2610   -0.4530 O.2     1  UNL1       -0.2658
     22  C15        6.4550   -0.8950   -0.6680 C.ar    1  UNL1        0.0496
     23  C16        6.7320   -2.1710   -0.2440 C.ar    1  UNL1       -0.0487
     24  C17        5.7570   -3.1480   -0.1470 C.ar    1  UNL1       -0.0610
     25  C18        4.4620   -2.8240   -0.4910 C.ar    1  UNL1       -0.0611
     26  C19        4.1920   -1.5500   -0.9130 C.ar    1  UNL1       -0.0521
     27  C20        5.1620   -0.5640   -1.0120 C.ar    1  UNL1        0.0106
     28  C21        2.9290    2.7240    0.0680 C.ar    1  UNL1       -0.0555
     29  C22        2.1780    3.1400    1.1370 C.ar    1  UNL1       -0.0254
     30  C23        1.0920    2.3890    1.5370 C.ar    1  UNL1        0.1355
     31  F1         0.3140    2.7600    2.5940 F       1  UNL1       -0.2047
     32  C24       -2.7450   -0.1340    1.2530 C.3     1  UNL1        0.0480
     33  C25       -3.3670   -0.9220    0.1180 C.3     1  UNL1        0.0631
     34 H          -7.5931    0.4090   -0.1476 H       1  UNL1        0.2880
     35 H          -6.5313    1.0134   -1.3371 H       1  UNL1        0.2880
     36 H          -4.8517   -1.6436    2.9902 H       1  UNL1        0.0316
     37 H          -5.0429   -2.9484    2.2289 H       1  UNL1        0.0316
     38 H          -7.6672   -2.1446    1.8186 H       1  UNL1        0.0316
     39 H          -7.5552   -0.9857    2.7768 H       1  UNL1        0.0316
     40 H          -4.6420    0.4970   -1.2361 H       1  UNL1        0.2495
     41 H          -4.0608    1.6605    0.3183 H       1  UNL1        0.0693
     42 H          -4.7984    1.7403   -1.2515 H       1  UNL1        0.0693
     43 H          -2.7220    2.1480   -2.0366 H       1  UNL1        0.0316
     44 H          -2.3996    0.4622   -1.7471 H       1  UNL1        0.0316
     45 H          -2.0382    2.6626    0.2593 H       1  UNL1        0.0466
     46 H          -0.7505    1.9108   -0.6471 H       1  UNL1        0.0466
     47 H           1.3260   -0.0454   -0.7492 H       1  UNL1        0.0629
     48 H           3.5617    1.9651   -2.4542 H       1  UNL1        0.0377
     49 H           3.0005    0.2765   -2.1928 H       1  UNL1        0.0377
     50 H           7.8055    1.9673   -1.2830 H       1  UNL1        0.1921
     51 H           7.7028   -2.4102    0.0117 H       1  UNL1        0.0625
     52 H           5.9942   -4.0990    0.1760 H       1  UNL1        0.0618
     53 H           3.7103   -3.5285   -0.4315 H       1  UNL1        0.0618
     54 H           3.2211   -1.3122   -1.1695 H       1  UNL1        0.0624
     55 H           3.7380    3.2963   -0.2202 H       1  UNL1        0.0621
     56 H           2.4231    4.0080    1.6385 H       1  UNL1        0.0646
     57 H          -3.4907    0.4910    1.6981 H       1  UNL1        0.0501
     58 H          -2.3573   -0.8184    1.9783 H       1  UNL1        0.0501
     59 H          -2.5956   -1.1945   -0.5716 H       1  UNL1        0.0709
     60 H          -3.8405   -1.7813    0.5449 H       1  UNL1        0.0709
@<TRIPOS>UNITY_ATOM_ATTR
6 1
charge 1
@<TRIPOS>BOND
     1     1     2    1
     2     2     3    2
     3     2     6    1
     4     3     4    1
     5     3     5    1
     6     4     5    1
     7     6     7    1
     8     6    33    1
     9     7     8    1
    10     8     9    1
    11     9    10    1
    12    10    11   am
    13    10    32    1
    14    11    12    2
    15    11    13    1
    16    13    14   ar
    17    13    30   ar
    18    14    15   ar
    19    15    16    1
    20    15    28   ar
    21    16    17    1
    22    17    18   ar
    23    17    27   ar
    24    18    19   ar
    25    19    20   ar
    26    20    21    2
    27    20    22   ar
    28    22    23   ar
    29    22    27   ar
    30    23    24   ar
    31    24    25   ar
    32    25    26   ar
    33    26    27   ar
    34    28    29   ar
    35    29    30   ar
    36    30    31    1
    37    32    33    1
    38     1    34    1
    39     1    35    1
    40     4    36    1
    41     4    37    1
    42     5    38    1
    43     5    39    1
    44     6    40    1
    45     7    41    1
    46     7    42    1
    47     8    43    1
    48     8    44    1
    49     9    45    1
    50     9    46    1
    51    14    47    1
    52    16    48    1
    53    16    49    1
    54    19    50    1
    55    23    51    1
    56    24    52    1
    57    25    53    1
    58    26    54    1
    59    28    55    1
    60    29    56    1
    61    32    57    1
    62    32    58    1
    63    33    59    1
    64    33    60    1
@<TRIPOS>MOLECULE
../data/bude_mols_rdkit_confs_charged/molecule_92.pdb
 60 64 0 0 0
SMALL
GASTEIGER

@<TRIPOS>ATOM
      1  N1         5.3550   -2.1400   -0.3120 N.pl3   1  UNL1       -0.2541
      2  C1         5.5820   -0.7520   -0.4350 C.2     1  UNL1        0.2207
      3  C2         6.7950   -0.2480   -0.3480 C.2     1  UNL1        0.0118
      4  C3         8.2580   -0.4590   -0.1560 C.3     1  UNL1       -0.0203
      5  C4         7.7580    0.8880   -0.3580 C.3     1  UNL1       -0.0203
      6  N2         4.4740    0.1050   -0.6560 N.pl3   1  UNL1       -0.3473
      7  C5         4.0470    0.6130    0.6330 C.3     1  UNL1        0.0485
      8  C6         2.8740    1.5210    0.4120 C.3     1  UNL1       -0.0039
      9  C7         1.5970    0.8430    0.7840 C.3     1  UNL1        0.0184
     10  N3         1.5320   -0.5090    0.2710 N.am    1  UNL1       -0.2939
     11  C8         0.2380   -1.0980    0.5230 C.2     1  UNL1        0.2495
     12  O1         0.0650   -2.2660    0.1220 O.2     1  UNL1       -0.2699
     13  C9        -0.8260   -0.4070    1.1990 C.ar    1  UNL1        0.0723
     14  C10       -1.7410    0.3540    0.4670 C.ar    1  UNL1       -0.0433
     15  C11       -2.7810    1.0400    1.0370 C.ar    1  UNL1       -0.0406
     16  C12       -3.7200    1.8120    0.2190 C.3     1  UNL1        0.0171
     17  C13       -5.0840    1.2950    0.1290 C.ar    1  UNL1        0.0736
     18  N4        -6.0030    1.8400    0.9750 N.ar    1  UNL1       -0.1750
     19  N5        -7.2540    1.4690    1.0520 N.ar    1  UNL1       -0.2425
     20  C14       -7.7040    0.4930    0.2680 C.ar    1  UNL1        0.2725
     21  O2        -8.8900    0.1170    0.3190 O.2     1  UNL1       -0.2658
     22  C15       -6.8440   -0.1100   -0.6140 C.ar    1  UNL1        0.0496
     23  C16       -7.2770   -1.1270   -1.4580 C.ar    1  UNL1       -0.0487
     24  C17       -6.3990   -1.7130   -2.3450 C.ar    1  UNL1       -0.0610
     25  C18       -5.0950   -1.3030   -2.4060 C.ar    1  UNL1       -0.0611
     26  C19       -4.6300   -0.3000   -1.5860 C.ar    1  UNL1       -0.0521
     27  C20       -5.5020    0.2880   -0.6970 C.ar    1  UNL1        0.0106
     28  C21       -2.9010    0.9500    2.4180 C.ar    1  UNL1       -0.0555
     29  C22       -2.0070    0.2030    3.1500 C.ar    1  UNL1       -0.0254
     30  C23       -0.9620   -0.4850    2.5740 C.ar    1  UNL1        0.1355
     31  F1        -0.0830   -1.2200    3.3020 F       1  UNL1       -0.2047
     32  C24        2.4970   -1.3270   -0.4140 C.3     1  UNL1        0.0480
     33  C25        3.4050   -0.5890   -1.3410 C.3     1  UNL1        0.0631
     34 H           6.1117   -2.7508   -0.1583 H       1  UNL1        0.2880
     35 H           4.4401   -2.4971   -0.3799 H       1  UNL1        0.2880
     36 H           8.8329   -0.9345   -0.9230 H       1  UNL1        0.0316
     37 H           8.8573   -0.9342    0.5922 H       1  UNL1        0.0316
     38 H           7.7663    1.5863    0.4527 H       1  UNL1        0.0316
     39 H           7.9817    1.6774   -1.0448 H       1  UNL1        0.0316
     40 H           5.1661    0.6504   -0.2169 H       1  UNL1        0.2495
     41 H           4.8461    1.1580    1.0906 H       1  UNL1        0.0693
     42 H           3.7727   -0.1960    1.2773 H       1  UNL1        0.0693
     43 H           2.8354    1.7982   -0.6208 H       1  UNL1        0.0316
     44 H           2.9924    2.3880    1.0278 H       1  UNL1        0.0316
     45 H           0.7785    1.4041    0.3838 H       1  UNL1        0.0466
     46 H           1.5473    0.7943    1.8517 H       1  UNL1        0.0466
     47 H          -1.6274    0.4019   -0.5576 H       1  UNL1        0.0629
     48 H          -3.3239    1.8588   -0.7739 H       1  UNL1        0.0377
     49 H          -3.8081    2.7599    0.7074 H       1  UNL1        0.0377
     50 H          -7.8615    1.9107    1.6885 H       1  UNL1        0.1921
     51 H          -8.2584   -1.4440   -1.4203 H       1  UNL1        0.0625
     52 H          -6.7280   -2.4670   -2.9680 H       1  UNL1        0.0618
     53 H          -4.4512   -1.7520   -3.0761 H       1  UNL1        0.0618
     54 H          -3.6457    0.0058   -1.6365 H       1  UNL1        0.0624
     55 H          -3.6668    1.4474    2.8988 H       1  UNL1        0.0621
     56 H          -2.1244    0.1562    4.1742 H       1  UNL1        0.0646
     57 H           1.9657   -2.0604   -0.9838 H       1  UNL1        0.0501
     58 H           3.1228   -1.7496    0.3441 H       1  UNL1        0.0501
     59 H           3.8371   -1.2901   -2.0242 H       1  UNL1        0.0709
     60 H           2.8160    0.1495   -1.8436 H       1  UNL1        0.0709
@<TRIPOS>UNITY_ATOM_ATTR
6 1
charge 1
@<TRIPOS>BOND
     1     1     2    1
     2     2     3    2
     3     2     6    1
     4     3     4    1
     5     3     5    1
     6     4     5    1
     7     6     7    1
     8     6    33    1
     9     7     8    1
    10     8     9    1
    11     9    10    1
    12    10    11   am
    13    10    32    1
    14    11    12    2
    15    11    13    1
    16    13    14   ar
    17    13    30   ar
    18    14    15   ar
    19    15    16    1
    20    15    28   ar
    21    16    17    1
    22    17    18   ar
    23    17    27   ar
    24    18    19   ar
    25    19    20   ar
    26    20    21    2
    27    20    22   ar
    28    22    23   ar
    29    22    27   ar
    30    23    24   ar
    31    24    25   ar
    32    25    26   ar
    33    26    27   ar
    34    28    29   ar
    35    29    30   ar
    36    30    31    1
    37    32    33    1
    38     1    34    1
    39     1    35    1
    40     4    36    1
    41     4    37    1
    42     5    38    1
    43     5    39    1
    44     6    40    1
    45     7    41    1
    46     7    42    1
    47     8    43    1
    48     8    44    1
    49     9    45    1
    50     9    46    1
    51    14    47    1
    52    16    48    1
    53    16    49    1
    54    19    50    1
    55    23    51    1
    56    24    52    1
    57    25    53    1
    58    26    54    1
    59    28    55    1
    60    29    56    1
    61    32    57    1
    62    32    58    1
    63    33    59    1
    64    33    60    1
@<TRIPOS>MOLECULE
../data/bude_mols_rdkit_confs_charged/molecule_92.pdb
 60 64 0 0 0
SMALL
GASTEIGER

@<TRIPOS>ATOM
      1  N1        -4.7460    2.2670   -1.1760 N.pl3   1  UNL1       -0.2541
      2  C1        -4.8430    0.9780   -0.6020 C.2     1  UNL1        0.2207
      3  C2        -5.9720    0.2990   -0.7050 C.2     1  UNL1        0.0118
      4  C3        -6.8120   -0.8950   -0.4550 C.3     1  UNL1       -0.0203
      5  C4        -7.4030    0.2560   -1.2190 C.3     1  UNL1       -0.0203
      6  N2        -3.7360    0.4290    0.0730 N.pl3   1  UNL1       -0.3473
      7  C5        -3.9910    0.1500    1.4450 C.3     1  UNL1        0.0485
      8  C6        -3.9790   -1.2980    1.8160 C.3     1  UNL1       -0.0039
      9  C7        -2.5550   -1.7400    2.1000 C.3     1  UNL1        0.0184
     10  N3        -1.6560   -1.0900    1.1610 N.am    1  UNL1       -0.2939
     11  C8        -0.4960   -0.4600    1.6840 C.2     1  UNL1        0.2495
     12  O1        -0.2620   -0.4710    2.9290 O.2     1  UNL1       -0.2699
     13  C9         0.4140    0.1950    0.7600 C.ar    1  UNL1        0.0723
     14  C10        1.4260   -0.5530    0.2030 C.ar    1  UNL1       -0.0433
     15  C11        2.3430   -0.0090   -0.7160 C.ar    1  UNL1       -0.0406
     16  C12        3.4070   -0.8630   -1.2870 C.3     1  UNL1        0.0171
     17  C13        4.5480   -0.9060   -0.3950 C.ar    1  UNL1        0.0736
     18  N4         4.5580   -1.9030    0.5340 N.ar    1  UNL1       -0.1750
     19  N5         5.4910   -2.0360    1.4590 N.ar    1  UNL1       -0.2425
     20  C14        6.5270   -1.1850    1.5620 C.ar    1  UNL1        0.2725
     21  O2         7.4160   -1.3280    2.4610 O.2     1  UNL1       -0.2658
     22  C15        6.5780   -0.1540    0.6510 C.ar    1  UNL1        0.0496
     23  C16        7.6510    0.7340    0.7180 C.ar    1  UNL1       -0.0487
     24  C17        7.6740    1.7360   -0.2260 C.ar    1  UNL1       -0.0610
     25  C18        6.7070    1.8790   -1.1950 C.ar    1  UNL1       -0.0611
     26  C19        5.6540    0.9850   -1.2380 C.ar    1  UNL1       -0.0521
     27  C20        5.5960   -0.0150   -0.3210 C.ar    1  UNL1        0.0106
     28  C21        2.1620    1.3100   -1.0200 C.ar    1  UNL1       -0.0555
     29  C22        1.1550    2.0790   -0.4720 C.ar    1  UNL1       -0.0254
     30  C23        0.2780    1.5230    0.4200 C.ar    1  UNL1        0.1355
     31  F1        -0.7250    2.2890    0.9800 F       1  UNL1       -0.2047
     32  C24       -1.8030   -1.0070   -0.2750 C.3     1  UNL1        0.0480
     33  C25       -3.2050   -0.6630   -0.7050 C.3     1  UNL1        0.0631
     34 H          -5.5176    2.6546   -1.6488 H       1  UNL1        0.2880
     35 H          -3.9069    2.7766   -1.1027 H       1  UNL1        0.2880
     36 H          -7.1539   -1.1061    0.5367 H       1  UNL1        0.0316
     37 H          -6.7010   -1.9421   -0.6451 H       1  UNL1        0.0316
     38 H          -7.5962    0.1640   -2.2674 H       1  UNL1        0.0316
     39 H          -8.2700    0.8751   -1.1187 H       1  UNL1        0.0316
     40 H          -3.0667   -0.2442    0.3339 H       1  UNL1        0.2495
     41 H          -4.9547    0.5457    1.6891 H       1  UNL1        0.0693
     42 H          -3.1904    0.6020    1.9923 H       1  UNL1        0.0693
     43 H          -4.3766   -1.8758    1.0079 H       1  UNL1        0.0316
     44 H          -4.5775   -1.4453    2.6906 H       1  UNL1        0.0316
     45 H          -2.4812   -2.8017    1.9895 H       1  UNL1        0.0466
     46 H          -2.2874   -1.4690    3.0999 H       1  UNL1        0.0466
     47 H           1.5156   -1.5464    0.4680 H       1  UNL1        0.0629
     48 H           3.7119   -0.4634   -2.2316 H       1  UNL1        0.0377
     49 H           3.0269   -1.8550   -1.4150 H       1  UNL1        0.0377
     50 H           5.4258   -2.7843    2.0954 H       1  UNL1        0.1921
     51 H           8.3873    0.6451    1.4356 H       1  UNL1        0.0625
     52 H           8.4535    2.4121   -0.2061 H       1  UNL1        0.0618
     53 H           6.7677    2.6462   -1.8826 H       1  UNL1        0.0618
     54 H           4.9206    1.0762   -1.9583 H       1  UNL1        0.0624
     55 H           2.8087    1.7529   -1.6913 H       1  UNL1        0.0621
     56 H           1.0634    3.0728   -0.7347 H       1  UNL1        0.0646
     57 H          -1.5386   -1.9527   -0.6999 H       1  UNL1        0.0501
     58 H          -1.1619   -0.2216   -0.6172 H       1  UNL1        0.0501
     59 H          -3.1946   -0.3831   -1.7377 H       1  UNL1        0.0709
     60 H          -3.8262   -1.5209   -0.5529 H       1  UNL1        0.0709
@<TRIPOS>UNITY_ATOM_ATTR
6 1
charge 1
@<TRIPOS>BOND
     1     1     2    1
     2     2     3    2
     3     2     6    1
     4     3     4    1
     5     3     5    1
     6     4     5    1
     7     6     7    1
     8     6    33    1
     9     7     8    1
    10     8     9    1
    11     9    10    1
    12    10    11   am
    13    10    32    1
    14    11    12    2
    15    11    13    1
    16    13    14   ar
    17    13    30   ar
    18    14    15   ar
    19    15    16    1
    20    15    28   ar
    21    16    17    1
    22    17    18   ar
    23    17    27   ar
    24    18    19   ar
    25    19    20   ar
    26    20    21    2
    27    20    22   ar
    28    22    23   ar
    29    22    27   ar
    30    23    24   ar
    31    24    25   ar
    32    25    26   ar
    33    26    27   ar
    34    28    29   ar
    35    29    30   ar
    36    30    31    1
    37    32    33    1
    38     1    34    1
    39     1    35    1
    40     4    36    1
    41     4    37    1
    42     5    38    1
    43     5    39    1
    44     6    40    1
    45     7    41    1
    46     7    42    1
    47     8    43    1
    48     8    44    1
    49     9    45    1
    50     9    46    1
    51    14    47    1
    52    16    48    1
    53    16    49    1
    54    19    50    1
    55    23    51    1
    56    24    52    1
    57    25    53    1
    58    26    54    1
    59    28    55    1
    60    29    56    1
    61    32    57    1
    62    32    58    1
    63    33    59    1
    64    33    60    1
@<TRIPOS>MOLECULE
../data/bude_mols_rdkit_confs_charged/molecule_92.pdb
 60 64 0 0 0
SMALL
GASTEIGER

@<TRIPOS>ATOM
      1  N1        -5.7710   -0.6370   -1.3040 N.pl3   1  UNL1       -0.2541
      2  C1        -5.8450   -0.0530   -0.0160 C.2     1  UNL1        0.2207
      3  C2        -6.9950    0.3770    0.4290 C.2     1  UNL1        0.0118
      4  C3        -7.7900    1.0220    1.5210 C.3     1  UNL1       -0.0203
      5  C4        -8.4640    0.5810    0.2170 C.3     1  UNL1       -0.0203
      6  N2        -4.6520    0.0300    0.7510 N.pl3   1  UNL1       -0.3473
      7  C5        -3.6850   -0.8060    0.3630 C.3     1  UNL1        0.0485
      8  C6        -2.8090   -1.8350   -0.0080 C.3     1  UNL1       -0.0039
      9  C7        -1.5140   -1.0290   -0.4430 C.3     1  UNL1        0.0184
     10  N3        -1.7260    0.3900   -0.0640 N.am    1  UNL1       -0.2939
     11  C8        -0.5180    0.8120    0.5370 C.2     1  UNL1        0.2495
     12  O1        -0.4760    2.0300    0.9360 O.2     1  UNL1       -0.2699
     13  C9         0.6630   -0.0260    0.7310 C.ar    1  UNL1        0.0723
     14  C10        1.5800   -0.0840   -0.2800 C.ar    1  UNL1       -0.0433
     15  C11        2.7390   -0.8770   -0.2090 C.ar    1  UNL1       -0.0406
     16  C12        3.6620   -0.8640   -1.3650 C.3     1  UNL1        0.0171
     17  C13        4.7000    0.1540   -1.1860 C.ar    1  UNL1        0.0736
     18  N4         4.4510    1.4110   -1.6450 N.ar    1  UNL1       -0.1750
     19  N5         5.2630    2.4140   -1.4790 N.ar    1  UNL1       -0.2425
     20  C14        6.4250    2.2670   -0.8270 C.ar    1  UNL1        0.2725
     21  O2         7.2000    3.2340   -0.6680 O.2     1  UNL1       -0.2658
     22  C15        6.7480    1.0090   -0.3310 C.ar    1  UNL1        0.0496
     23  C16        7.9460    0.8390    0.3190 C.ar    1  UNL1       -0.0487
     24  C17        8.2650   -0.4320    0.7880 C.ar    1  UNL1       -0.0610
     25  C18        7.3980   -1.4850    0.6020 C.ar    1  UNL1       -0.0611
     26  C19        6.2100   -1.2880   -0.0490 C.ar    1  UNL1       -0.0521
     27  C20        5.8810   -0.0390   -0.5160 C.ar    1  UNL1        0.0106
     28  C21        2.8990   -1.5930    0.9370 C.ar    1  UNL1       -0.0555
     29  C22        1.9560   -1.5310    1.9730 C.ar    1  UNL1       -0.0254
     30  C23        0.8330   -0.7530    1.8890 C.ar    1  UNL1        0.1355
     31  F1        -0.1140   -0.6470    2.8500 F       1  UNL1       -0.2047
     32  C24       -2.7130    1.3660   -0.1170 C.3     1  UNL1        0.0480
     33  C25       -4.0310    1.3870    0.5860 C.3     1  UNL1        0.0631
     34 H          -6.5808   -0.7086   -1.8593 H       1  UNL1        0.2880
     35 H          -4.9098   -0.9714   -1.6441 H       1  UNL1        0.2880
     36 H          -7.6632    2.0628    1.7346 H       1  UNL1        0.0316
     37 H          -7.9482    0.8305    2.5618 H       1  UNL1        0.0316
     38 H          -9.1278   -0.2582    0.2125 H       1  UNL1        0.0316
     39 H          -9.0667    1.0578   -0.5275 H       1  UNL1        0.0316
     40 H          -4.5236   -0.6593    1.4421 H       1  UNL1        0.2495
     41 H          -2.9953   -0.4154    1.0818 H       1  UNL1        0.0693
     42 H          -4.3183   -1.1037   -0.4464 H       1  UNL1        0.0693
     43 H          -3.2032   -2.4056   -0.8228 H       1  UNL1        0.0316
     44 H          -2.6307   -2.5492    0.7685 H       1  UNL1        0.0316
     45 H          -1.3724   -1.1078   -1.5007 H       1  UNL1        0.0466
     46 H          -0.6441   -1.4229    0.0397 H       1  UNL1        0.0466
     47 H           1.4154    0.4770   -1.1304 H       1  UNL1        0.0629
     48 H           3.1080   -0.6484   -2.2547 H       1  UNL1        0.0377
     49 H           4.1299   -1.8231   -1.4430 H       1  UNL1        0.0377
     50 H           5.0195    3.2974   -1.8390 H       1  UNL1        0.1921
     51 H           8.5920    1.6321    0.4559 H       1  UNL1        0.0625
     52 H           9.1592   -0.5864    1.2795 H       1  UNL1        0.0618
     53 H           7.6438   -2.4236    0.9536 H       1  UNL1        0.0618
     54 H           5.5613   -2.0783   -0.1889 H       1  UNL1        0.0624
     55 H           3.7310   -2.1937    1.0459 H       1  UNL1        0.0621
     56 H           2.1138   -2.0899    2.8261 H       1  UNL1        0.0646
     57 H          -2.9598    1.4439   -1.1552 H       1  UNL1        0.0501
     58 H          -2.2172    2.1247    0.4517 H       1  UNL1        0.0501
     59 H          -3.8885    1.8130    1.5571 H       1  UNL1        0.0709
     60 H          -4.6982    1.9632   -0.0204 H       1  UNL1        0.0709
@<TRIPOS>UNITY_ATOM_ATTR
6 1
charge 1
@<TRIPOS>BOND
     1     1     2    1
     2     2     3    2
     3     2     6    1
     4     3     4    1
     5     3     5    1
     6     4     5    1
     7     6     7    1
     8     6    33    1
     9     7     8    1
    10     8     9    1
    11     9    10    1
    12    10    11   am
    13    10    32    1
    14    11    12    2
    15    11    13    1
    16    13    14   ar
    17    13    30   ar
    18    14    15   ar
    19    15    16    1
    20    15    28   ar
    21    16    17    1
    22    17    18   ar
    23    17    27   ar
    24    18    19   ar
    25    19    20   ar
    26    20    21    2
    27    20    22   ar
    28    22    23   ar
    29    22    27   ar
    30    23    24   ar
    31    24    25   ar
    32    25    26   ar
    33    26    27   ar
    34    28    29   ar
    35    29    30   ar
    36    30    31    1
    37    32    33    1
    38     1    34    1
    39     1    35    1
    40     4    36    1
    41     4    37    1
    42     5    38    1
    43     5    39    1
    44     6    40    1
    45     7    41    1
    46     7    42    1
    47     8    43    1
    48     8    44    1
    49     9    45    1
    50     9    46    1
    51    14    47    1
    52    16    48    1
    53    16    49    1
    54    19    50    1
    55    23    51    1
    56    24    52    1
    57    25    53    1
    58    26    54    1
    59    28    55    1
    60    29    56    1
    61    32    57    1
    62    32    58    1
    63    33    59    1
    64    33    60    1
@<TRIPOS>MOLECULE
../data/bude_mols_rdkit_confs_charged/molecule_92.pdb
 60 64 0 0 0
SMALL
GASTEIGER

@<TRIPOS>ATOM
      1  N1        -6.4750   -1.1170    0.7330 N.pl3   1  UNL1       -0.2541
      2  C1        -5.7740    0.0090    0.2150 C.2     1  UNL1        0.2207
      3  C2        -6.3970    1.1740    0.1850 C.2     1  UNL1        0.0118
      4  C3        -6.4500    2.6680   -0.1340 C.3     1  UNL1       -0.0203
      5  C4        -7.6270    2.0410    0.4480 C.3     1  UNL1       -0.0203
      6  N2        -4.4490   -0.0400   -0.2690 N.pl3   1  UNL1       -0.3473
      7  C5        -3.9020   -1.3760   -0.2750 C.3     1  UNL1        0.0485
      8  C6        -2.9040   -1.4710   -1.3820 C.3     1  UNL1       -0.0039
      9  C7        -1.5110   -1.0780   -0.9480 C.3     1  UNL1        0.0184
     10  N3        -1.4970    0.1850   -0.2400 N.am    1  UNL1       -0.2939
     11  C8        -0.3200    0.3700    0.5350 C.2     1  UNL1        0.2495
     12  O1        -0.1910    1.4470    1.2060 O.2     1  UNL1       -0.2699
     13  C9         0.7420   -0.6000    0.6070 C.ar    1  UNL1        0.0723
     14  C10        1.7770   -0.5060   -0.3250 C.ar    1  UNL1       -0.0433
     15  C11        2.7950   -1.4040   -0.2840 C.ar    1  UNL1       -0.0406
     16  C12        3.9350   -1.3820   -1.2070 C.3     1  UNL1        0.0171
     17  C13        5.1560   -0.9770   -0.5030 C.ar    1  UNL1        0.0736
     18  N4         5.9690   -1.9490    0.0010 N.ar    1  UNL1       -0.1750
     19  N5         7.0380   -1.6350    0.6870 N.ar    1  UNL1       -0.2425
     20  C14        7.3940   -0.3700    0.9330 C.ar    1  UNL1        0.2725
     21  O2         8.4360   -0.0990    1.6020 O.2     1  UNL1       -0.2658
     22  C15        6.6260    0.6730    0.4570 C.ar    1  UNL1        0.0496
     23  C16        6.9900    1.9890    0.6900 C.ar    1  UNL1       -0.0487
     24  C17        6.2080    2.9940    0.1840 C.ar    1  UNL1       -0.0610
     25  C18        5.0890    2.6600   -0.5380 C.ar    1  UNL1       -0.0611
     26  C19        4.7110    1.3590   -0.7800 C.ar    1  UNL1       -0.0521
     27  C20        5.4810    0.3310   -0.2790 C.ar    1  UNL1        0.0106
     28  C21        2.7680   -2.3920    0.6930 C.ar    1  UNL1       -0.0555
     29  C22        1.7430   -2.4670    1.5980 C.ar    1  UNL1       -0.0254
     30  C23        0.7130   -1.5820    1.5800 C.ar    1  UNL1        0.1355
     31  F1        -0.2980   -1.6320    2.4520 F       1  UNL1       -0.2047
     32  C24       -2.4550    1.2600   -0.1910 C.3     1  UNL1        0.0480
     33  C25       -3.6390    0.7720    0.6400 C.3     1  UNL1        0.0631
     34 H          -7.3996   -1.0155    1.0555 H       1  UNL1        0.2880
     35 H          -6.0350   -1.9970    0.7687 H       1  UNL1        0.2880
     36 H          -6.4708    2.9927   -1.1533 H       1  UNL1        0.0316
     37 H          -5.8448    3.5105    0.1283 H       1  UNL1        0.0316
     38 H          -7.9083    2.2717    1.4543 H       1  UNL1        0.0316
     39 H          -8.6577    1.9808    0.1671 H       1  UNL1        0.0316
     40 H          -5.2404   -0.0617   -0.8542 H       1  UNL1        0.2495
     41 H          -4.6859   -2.0869   -0.4330 H       1  UNL1        0.0693
     42 H          -3.4319   -1.5853    0.6631 H       1  UNL1        0.0693
     43 H          -3.2108   -0.8224   -2.1758 H       1  UNL1        0.0316
     44 H          -2.8677   -2.4929   -1.6970 H       1  UNL1        0.0316
     45 H          -0.8902   -0.9942   -1.8154 H       1  UNL1        0.0466
     46 H          -1.1480   -1.8329   -0.2823 H       1  UNL1        0.0466
     47 H           1.7687    0.2393   -1.0388 H       1  UNL1        0.0629
     48 H           3.7362   -0.6872   -1.9961 H       1  UNL1        0.0377
     49 H           4.0755   -2.3640   -1.6080 H       1  UNL1        0.0377
     50 H           7.6040   -2.3607    1.0367 H       1  UNL1        0.1921
     51 H           7.8373    2.2092    1.2364 H       1  UNL1        0.0625
     52 H           6.4555    3.9833    0.3426 H       1  UNL1        0.0618
     53 H           4.5036    3.4206   -0.9172 H       1  UNL1        0.0618
     54 H           3.8616    1.1555   -1.3297 H       1  UNL1        0.0624
     55 H           3.5344   -3.0817    0.7373 H       1  UNL1        0.0621
     56 H           1.7535   -3.2136    2.3104 H       1  UNL1        0.0646
     57 H          -2.7788    1.5079   -1.1803 H       1  UNL1        0.0501
     58 H          -2.0210    2.1360    0.2440 H       1  UNL1        0.0501
     59 H          -3.2984    0.1820    1.4651 H       1  UNL1        0.0709
     60 H          -4.1989    1.5871    1.0486 H       1  UNL1        0.0709
@<TRIPOS>UNITY_ATOM_ATTR
6 1
charge 1
@<TRIPOS>BOND
     1     1     2    1
     2     2     3    2
     3     2     6    1
     4     3     4    1
     5     3     5    1
     6     4     5    1
     7     6     7    1
     8     6    33    1
     9     7     8    1
    10     8     9    1
    11     9    10    1
    12    10    11   am
    13    10    32    1
    14    11    12    2
    15    11    13    1
    16    13    14   ar
    17    13    30   ar
    18    14    15   ar
    19    15    16    1
    20    15    28   ar
    21    16    17    1
    22    17    18   ar
    23    17    27   ar
    24    18    19   ar
    25    19    20   ar
    26    20    21    2
    27    20    22   ar
    28    22    23   ar
    29    22    27   ar
    30    23    24   ar
    31    24    25   ar
    32    25    26   ar
    33    26    27   ar
    34    28    29   ar
    35    29    30   ar
    36    30    31    1
    37    32    33    1
    38     1    34    1
    39     1    35    1
    40     4    36    1
    41     4    37    1
    42     5    38    1
    43     5    39    1
    44     6    40    1
    45     7    41    1
    46     7    42    1
    47     8    43    1
    48     8    44    1
    49     9    45    1
    50     9    46    1
    51    14    47    1
    52    16    48    1
    53    16    49    1
    54    19    50    1
    55    23    51    1
    56    24    52    1
    57    25    53    1
    58    26    54    1
    59    28    55    1
    60    29    56    1
    61    32    57    1
    62    32    58    1
    63    33    59    1
    64    33    60    1
@<TRIPOS>MOLECULE
../data/bude_mols_rdkit_confs_charged/molecule_92.pdb
 60 64 0 0 0
SMALL
GASTEIGER

@<TRIPOS>ATOM
      1  N1         5.4200   -1.5770   -1.4070 N.pl3   1  UNL1       -0.2541
      2  C1         5.3680   -0.3380   -0.7120 C.2     1  UNL1        0.2207
      3  C2         6.2410    0.6270   -0.8920 C.2     1  UNL1        0.0118
      4  C3         7.4680    1.0720   -1.6260 C.3     1  UNL1       -0.0203
      5  C4         6.8010    1.9500   -0.6340 C.3     1  UNL1       -0.0203
      6  N2         4.2720   -0.1950    0.2180 N.pl3   1  UNL1       -0.3473
      7  C5         4.6580   -0.7350    1.4590 C.3     1  UNL1        0.0485
      8  C6         3.6640   -1.6190    2.1320 C.3     1  UNL1       -0.0039
      9  C7         2.5150   -0.7570    2.6230 C.3     1  UNL1        0.0184
     10  N3         1.6750   -0.3270    1.5530 N.am    1  UNL1       -0.2939
     11  C8         0.3970    0.1740    1.9730 C.2     1  UNL1        0.2495
     12  O1         0.1210    0.1960    3.1750 O.2     1  UNL1       -0.2699
     13  C9        -0.5730    0.6570    0.9830 C.ar    1  UNL1        0.0723
     14  C10       -1.4460   -0.2490    0.4200 C.ar    1  UNL1       -0.0433
     15  C11       -2.3800    0.1310   -0.5560 C.ar    1  UNL1       -0.0406
     16  C12       -3.2650   -0.9080   -1.1060 C.3     1  UNL1        0.0171
     17  C13       -4.5930   -0.9690   -0.4570 C.ar    1  UNL1        0.0736
     18  N4        -4.7030   -1.7940    0.6280 N.ar    1  UNL1       -0.1750
     19  N5        -5.8080   -1.8950    1.3450 N.ar    1  UNL1       -0.2425
     20  C14       -6.9160   -1.1950    1.0640 C.ar    1  UNL1        0.2725
     21  O2        -7.9670   -1.2820    1.7350 O.2     1  UNL1       -0.2658
     22  C15       -6.8610   -0.3460   -0.0260 C.ar    1  UNL1        0.0496
     23  C16       -7.9530    0.4000   -0.4050 C.ar    1  UNL1       -0.0487
     24  C17       -7.9430    1.2470   -1.5020 C.ar    1  UNL1       -0.0610
     25  C18       -6.7660    1.3110   -2.2140 C.ar    1  UNL1       -0.0611
     26  C19       -5.6350    0.5870   -1.8840 C.ar    1  UNL1       -0.0521
     27  C20       -5.6910   -0.2400   -0.7840 C.ar    1  UNL1        0.0106
     28  C21       -2.3810    1.4410   -0.9170 C.ar    1  UNL1       -0.0555
     29  C22       -1.4910    2.3680   -0.3430 C.ar    1  UNL1       -0.0254
     30  C23       -0.5910    1.9770    0.6030 C.ar    1  UNL1        0.1355
     31  F1         0.2890    2.8550    1.1820 F       1  UNL1       -0.2047
     32  C24        1.8250   -0.2870    0.1150 C.3     1  UNL1        0.0480
     33  C25        3.1200   -0.8100   -0.3980 C.3     1  UNL1        0.0631
     34 H           6.1393   -1.7467   -2.0574 H       1  UNL1        0.2880
     35 H           4.7367   -2.2653   -1.2379 H       1  UNL1        0.2880
     36 H           7.4174    1.3027   -2.6696 H       1  UNL1        0.0316
     37 H           8.4573    0.6884   -1.7640 H       1  UNL1        0.0316
     38 H           7.2775    2.1524    0.3024 H       1  UNL1        0.0316
     39 H           6.4118    2.9464   -0.6565 H       1  UNL1        0.0316
     40 H           4.1667   -0.0701    1.1889 H       1  UNL1        0.2495
     41 H           4.8680    0.0810    2.1186 H       1  UNL1        0.0693
     42 H           5.5002   -1.3606    1.2486 H       1  UNL1        0.0693
     43 H           4.1239   -2.1152    2.9609 H       1  UNL1        0.0316
     44 H           3.3040   -2.3577    1.4467 H       1  UNL1        0.0316
     45 H           2.9152    0.1044    3.1157 H       1  UNL1        0.0466
     46 H           1.9228   -1.3452    3.2925 H       1  UNL1        0.0466
     47 H          -1.4118   -1.2344    0.7248 H       1  UNL1        0.0629
     48 H          -2.7865   -1.8573   -0.9842 H       1  UNL1        0.0377
     49 H          -3.4324   -0.6614   -2.1336 H       1  UNL1        0.0377
     50 H          -5.8180   -2.5080    2.1153 H       1  UNL1        0.1921
     51 H          -8.8183    0.3256    0.1524 H       1  UNL1        0.0625
     52 H          -8.7722    1.7995   -1.7706 H       1  UNL1        0.0618
     53 H          -6.7259    1.9320   -3.0373 H       1  UNL1        0.0618
     54 H          -4.7730    0.6642   -2.4462 H       1  UNL1        0.0624
     55 H          -3.0521    1.7648   -1.6310 H       1  UNL1        0.0621
     56 H          -1.5202    3.3553   -0.6419 H       1  UNL1        0.0646
     57 H           1.7302    0.7311   -0.2002 H       1  UNL1        0.0501
     58 H           1.0658   -0.9278   -0.2823 H       1  UNL1        0.0501
     59 H           3.1579   -1.8631   -0.2121 H       1  UNL1        0.0709
     60 H           3.1610   -0.5815   -1.4425 H       1  UNL1        0.0709
@<TRIPOS>UNITY_ATOM_ATTR
6 1
charge 1
@<TRIPOS>BOND
     1     1     2    1
     2     2     3    2
     3     2     6    1
     4     3     4    1
     5     3     5    1
     6     4     5    1
     7     6     7    1
     8     6    33    1
     9     7     8    1
    10     8     9    1
    11     9    10    1
    12    10    11   am
    13    10    32    1
    14    11    12    2
    15    11    13    1
    16    13    14   ar
    17    13    30   ar
    18    14    15   ar
    19    15    16    1
    20    15    28   ar
    21    16    17    1
    22    17    18   ar
    23    17    27   ar
    24    18    19   ar
    25    19    20   ar
    26    20    21    2
    27    20    22   ar
    28    22    23   ar
    29    22    27   ar
    30    23    24   ar
    31    24    25   ar
    32    25    26   ar
    33    26    27   ar
    34    28    29   ar
    35    29    30   ar
    36    30    31    1
    37    32    33    1
    38     1    34    1
    39     1    35    1
    40     4    36    1
    41     4    37    1
    42     5    38    1
    43     5    39    1
    44     6    40    1
    45     7    41    1
    46     7    42    1
    47     8    43    1
    48     8    44    1
    49     9    45    1
    50     9    46    1
    51    14    47    1
    52    16    48    1
    53    16    49    1
    54    19    50    1
    55    23    51    1
    56    24    52    1
    57    25    53    1
    58    26    54    1
    59    28    55    1
    60    29    56    1
    61    32    57    1
    62    32    58    1
    63    33    59    1
    64    33    60    1
@<TRIPOS>MOLECULE
../data/bude_mols_rdkit_confs_charged/molecule_92.pdb
 60 64 0 0 0
SMALL
GASTEIGER

@<TRIPOS>ATOM
      1  N1        -6.1690   -1.2850    0.8840 N.pl3   1  UNL1       -0.2541
      2  C1        -5.7580   -0.2060    0.0660 C.2     1  UNL1        0.2207
      3  C2        -6.6270    0.6320   -0.4470 C.2     1  UNL1        0.0118
      4  C3        -8.0240    1.0740   -0.6200 C.3     1  UNL1       -0.0203
      5  C4        -6.9270    1.8590   -1.2970 C.3     1  UNL1       -0.0203
      6  N2        -4.3720   -0.0450   -0.1970 N.pl3   1  UNL1       -0.3473
      7  C5        -3.5950   -0.8380    0.7090 C.3     1  UNL1        0.0485
      8  C6        -2.6130   -1.6270   -0.1440 C.3     1  UNL1       -0.0039
      9  C7        -1.7050   -0.5850   -0.7900 C.3     1  UNL1        0.0184
     10  N3        -1.6580    0.6210    0.0290 N.am    1  UNL1       -0.2939
     11  C8        -0.4380    0.8040    0.7250 C.2     1  UNL1        0.2495
     12  O1        -0.2960    1.8040    1.4540 O.2     1  UNL1       -0.2699
     13  C9         0.6530   -0.1650    0.6000 C.ar    1  UNL1        0.0723
     14  C10        1.6200   -0.0280   -0.3490 C.ar    1  UNL1       -0.0433
     15  C11        2.6410   -0.9720   -0.4420 C.ar    1  UNL1       -0.0406
     16  C12        3.6920   -0.8490   -1.4850 C.3     1  UNL1        0.0171
     17  C13        4.6740    0.1460   -1.0830 C.ar    1  UNL1        0.0736
     18  N4         4.4610    1.4290   -1.5140 N.ar    1  UNL1       -0.1750
     19  N5         5.2610    2.4230   -1.1580 N.ar    1  UNL1       -0.2425
     20  C14        6.3320    2.2820   -0.3610 C.ar    1  UNL1        0.2725
     21  O2         7.0860    3.2090   -0.0230 O.2     1  UNL1       -0.2658
     22  C15        6.6100    1.0140    0.1110 C.ar    1  UNL1        0.0496
     23  C16        7.6960    0.7530    0.9190 C.ar    1  UNL1       -0.0487
     24  C17        7.9960   -0.5260    1.3830 C.ar    1  UNL1       -0.0610
     25  C18        7.1410   -1.5320    0.9870 C.ar    1  UNL1       -0.0611
     26  C19        6.0560   -1.2740    0.1810 C.ar    1  UNL1       -0.0521
     27  C20        5.7630   -0.0130   -0.2720 C.ar    1  UNL1        0.0106
     28  C21        2.6260   -2.0120    0.4400 C.ar    1  UNL1       -0.0555
     29  C22        1.6530   -2.1700    1.4150 C.ar    1  UNL1       -0.0254
     30  C23        0.6590   -1.2230    1.4820 C.ar    1  UNL1        0.1355
     31  F1        -0.2850   -1.3980    2.4480 F       1  UNL1       -0.2047
     32  C24       -2.6230    1.6520    0.2570 C.3     1  UNL1        0.0480
     33  C25       -4.0320    1.3340   -0.0720 C.3     1  UNL1        0.0631
     34 H          -7.1245   -1.4175    1.0807 H       1  UNL1        0.2880
     35 H          -5.4994   -1.9033    1.2564 H       1  UNL1        0.2880
     36 H          -8.5519    1.5026    0.2061 H       1  UNL1        0.0316
     37 H          -8.9231    0.6009   -0.9558 H       1  UNL1        0.0316
     38 H          -6.8128    1.8201   -2.3602 H       1  UNL1        0.0316
     39 H          -6.6097    2.8808   -1.3069 H       1  UNL1        0.0316
     40 H          -3.8885   -0.4501    0.5589 H       1  UNL1        0.2495
     41 H          -4.2295   -1.5045    1.2550 H       1  UNL1        0.0693
     42 H          -3.0841   -0.2244    1.4213 H       1  UNL1        0.0693
     43 H          -3.1336   -2.1855   -0.8936 H       1  UNL1        0.0316
     44 H          -2.0570   -2.3309    0.4394 H       1  UNL1        0.0316
     45 H          -2.0841   -0.3388   -1.7598 H       1  UNL1        0.0466
     46 H          -0.7173   -0.9877   -0.8746 H       1  UNL1        0.0466
     47 H           1.5968    0.7737   -0.9984 H       1  UNL1        0.0629
     48 H           3.2420   -0.5504   -2.4087 H       1  UNL1        0.0377
     49 H           4.1782   -1.7941   -1.6085 H       1  UNL1        0.0377
     50 H           5.0569    3.3233   -1.5000 H       1  UNL1        0.1921
     51 H           8.3110    1.5358    1.1909 H       1  UNL1        0.0625
     52 H           8.8114   -0.7096    1.9883 H       1  UNL1        0.0618
     53 H           7.3183   -2.4988    1.3015 H       1  UNL1        0.0618
     54 H           5.4413   -2.0566   -0.0922 H       1  UNL1        0.0624
     55 H           3.3770   -2.7172    0.3786 H       1  UNL1        0.0621
     56 H           1.6743   -2.9698    2.0669 H       1  UNL1        0.0646
     57 H          -2.3367    2.4989   -0.3310 H       1  UNL1        0.0501
     58 H          -2.6129    1.8155    1.3144 H       1  UNL1        0.0501
     59 H          -4.6454    1.7490    0.7003 H       1  UNL1        0.0709
     60 H          -4.1905    1.7487   -1.0456 H       1  UNL1        0.0709
@<TRIPOS>UNITY_ATOM_ATTR
6 1
charge 1
@<TRIPOS>BOND
     1     1     2    1
     2     2     3    2
     3     2     6    1
     4     3     4    1
     5     3     5    1
     6     4     5    1
     7     6     7    1
     8     6    33    1
     9     7     8    1
    10     8     9    1
    11     9    10    1
    12    10    11   am
    13    10    32    1
    14    11    12    2
    15    11    13    1
    16    13    14   ar
    17    13    30   ar
    18    14    15   ar
    19    15    16    1
    20    15    28   ar
    21    16    17    1
    22    17    18   ar
    23    17    27   ar
    24    18    19   ar
    25    19    20   ar
    26    20    21    2
    27    20    22   ar
    28    22    23   ar
    29    22    27   ar
    30    23    24   ar
    31    24    25   ar
    32    25    26   ar
    33    26    27   ar
    34    28    29   ar
    35    29    30   ar
    36    30    31    1
    37    32    33    1
    38     1    34    1
    39     1    35    1
    40     4    36    1
    41     4    37    1
    42     5    38    1
    43     5    39    1
    44     6    40    1
    45     7    41    1
    46     7    42    1
    47     8    43    1
    48     8    44    1
    49     9    45    1
    50     9    46    1
    51    14    47    1
    52    16    48    1
    53    16    49    1
    54    19    50    1
    55    23    51    1
    56    24    52    1
    57    25    53    1
    58    26    54    1
    59    28    55    1
    60    29    56    1
    61    32    57    1
    62    32    58    1
    63    33    59    1
    64    33    60    1
@<TRIPOS>MOLECULE
../data/bude_mols_rdkit_confs_charged/molecule_92.pdb
 60 64 0 0 0
SMALL
GASTEIGER

@<TRIPOS>ATOM
      1  N1        -6.3370    2.8850    0.5000 N.pl3   1  UNL1       -0.2541
      2  C1        -5.7120    1.5780    0.5310 C.2     1  UNL1        0.2207
      3  C2        -6.3030    0.6250   -0.1610 C.2     1  UNL1        0.0118
      4  C3        -7.4130    0.1850   -1.0540 C.3     1  UNL1       -0.0203
      5  C4        -6.3860   -0.8160   -0.6530 C.3     1  UNL1       -0.0203
      6  N2        -4.5160    1.4080    1.2850 N.pl3   1  UNL1       -0.3473
      7  C5        -3.5900    2.4160    0.8250 C.3     1  UNL1        0.0485
      8  C6        -2.2080    2.2580    1.4170 C.3     1  UNL1       -0.0039
      9  C7        -1.3690    1.5820    0.3370 C.3     1  UNL1        0.0184
     10  N3        -1.7540    0.1630    0.4160 N.am    1  UNL1       -0.2939
     11  C8        -0.6740   -0.6900    0.6990 C.2     1  UNL1        0.2495
     12  O1        -0.8800   -1.9230    0.7940 O.2     1  UNL1       -0.2699
     13  C9         0.6860   -0.1980    0.8890 C.ar    1  UNL1        0.0723
     14  C10        1.5230   -0.1120   -0.1830 C.ar    1  UNL1       -0.0433
     15  C11        2.8510    0.3560   -0.1070 C.ar    1  UNL1       -0.0406
     16  C12        3.6690    0.4200   -1.3410 C.3     1  UNL1        0.0171
     17  C13        4.2960   -0.8390   -1.7270 C.ar    1  UNL1        0.0736
     18  N4         3.6160   -1.6620   -2.5750 N.ar    1  UNL1       -0.1750
     19  N5         4.0820   -2.8660   -2.9360 N.ar    1  UNL1       -0.2425
     20  C14        5.2440   -3.3360   -2.4850 C.ar    1  UNL1        0.2725
     21  O2         5.6280   -4.4850   -2.8640 O.2     1  UNL1       -0.2658
     22  C15        5.9810   -2.5660   -1.6320 C.ar    1  UNL1        0.0496
     23  C16        7.1890   -3.0420   -1.1830 C.ar    1  UNL1       -0.0487
     24  C17        7.9300   -2.2520   -0.3450 C.ar    1  UNL1       -0.0610
     25  C18        7.4530   -0.9910    0.0350 C.ar    1  UNL1       -0.0611
     26  C19        6.2410   -0.5430   -0.4310 C.ar    1  UNL1       -0.0521
     27  C20        5.4900   -1.3110   -1.2610 C.ar    1  UNL1        0.0106
     28  C21        3.3010    0.7390    1.1140 C.ar    1  UNL1       -0.0555
     29  C22        2.4560    0.6600    2.2420 C.ar    1  UNL1       -0.0254
     30  C23        1.1660    0.1950    2.1200 C.ar    1  UNL1        0.1355
     31  F1         0.3280    0.1050    3.1770 F       1  UNL1       -0.2047
     32  C24       -3.0850   -0.3070    0.2330 C.3     1  UNL1        0.0480
     33  C25       -4.0180    0.0900    1.3500 C.3     1  UNL1        0.0631
     34 H          -7.1643    3.0229   -0.0155 H       1  UNL1        0.2880
     35 H          -5.9343    3.6351    0.9945 H       1  UNL1        0.2880
     36 H          -7.4496    0.5318   -2.0656 H       1  UNL1        0.0316
     37 H          -8.4806    0.2254   -0.9951 H       1  UNL1        0.0316
     38 H          -6.6392   -1.6019    0.0275 H       1  UNL1        0.0316
     39 H          -5.7287   -1.4814   -1.1727 H       1  UNL1        0.0316
     40 H          -4.8010    2.1969    0.7696 H       1  UNL1        0.2495
     41 H          -3.9701    3.3786    1.0969 H       1  UNL1        0.0693
     42 H          -3.4995    2.3093   -0.2358 H       1  UNL1        0.0693
     43 H          -2.2463    1.6483    2.2954 H       1  UNL1        0.0316
     44 H          -1.7929    3.2009    1.7061 H       1  UNL1        0.0316
     45 H          -0.3247    1.7035    0.5361 H       1  UNL1        0.0466
     46 H          -1.5375    1.9990   -0.6339 H       1  UNL1        0.0466
     47 H           1.1638   -0.4067   -1.1045 H       1  UNL1        0.0629
     48 H           4.4422    1.1441   -1.1903 H       1  UNL1        0.0377
     49 H           2.9976    0.6768   -2.1336 H       1  UNL1        0.0377
     50 H           3.5498   -3.4191   -3.5525 H       1  UNL1        0.1921
     51 H           7.5299   -3.9727   -1.4704 H       1  UNL1        0.0625
     52 H           8.8408   -2.5861    0.0069 H       1  UNL1        0.0618
     53 H           8.0133   -0.3973    0.6664 H       1  UNL1        0.0618
     54 H           5.8975    0.3878   -0.1470 H       1  UNL1        0.0624
     55 H           4.2659    1.0899    1.2188 H       1  UNL1        0.0621
     56 H           2.8085    0.9535    3.1665 H       1  UNL1        0.0646
     57 H          -3.0626   -1.3751    0.1729 H       1  UNL1        0.0501
     58 H          -3.4579    0.1401   -0.6648 H       1  UNL1        0.0501
     59 H          -4.8529   -0.5790    1.3358 H       1  UNL1        0.0709
     60 H          -3.4395    0.0383    2.2486 H       1  UNL1        0.0709
@<TRIPOS>UNITY_ATOM_ATTR
6 1
charge 1
@<TRIPOS>BOND
     1     1     2    1
     2     2     3    2
     3     2     6    1
     4     3     4    1
     5     3     5    1
     6     4     5    1
     7     6     7    1
     8     6    33    1
     9     7     8    1
    10     8     9    1
    11     9    10    1
    12    10    11   am
    13    10    32    1
    14    11    12    2
    15    11    13    1
    16    13    14   ar
    17    13    30   ar
    18    14    15   ar
    19    15    16    1
    20    15    28   ar
    21    16    17    1
    22    17    18   ar
    23    17    27   ar
    24    18    19   ar
    25    19    20   ar
    26    20    21    2
    27    20    22   ar
    28    22    23   ar
    29    22    27   ar
    30    23    24   ar
    31    24    25   ar
    32    25    26   ar
    33    26    27   ar
    34    28    29   ar
    35    29    30   ar
    36    30    31    1
    37    32    33    1
    38     1    34    1
    39     1    35    1
    40     4    36    1
    41     4    37    1
    42     5    38    1
    43     5    39    1
    44     6    40    1
    45     7    41    1
    46     7    42    1
    47     8    43    1
    48     8    44    1
    49     9    45    1
    50     9    46    1
    51    14    47    1
    52    16    48    1
    53    16    49    1
    54    19    50    1
    55    23    51    1
    56    24    52    1
    57    25    53    1
    58    26    54    1
    59    28    55    1
    60    29    56    1
    61    32    57    1
    62    32    58    1
    63    33    59    1
    64    33    60    1
@<TRIPOS>MOLECULE
../data/bude_mols_rdkit_confs_charged/molecule_92.pdb
 60 64 0 0 0
SMALL
GASTEIGER

@<TRIPOS>ATOM
      1  N1        -6.1450    2.5920    0.5470 N.pl3   1  UNL1       -0.2541
      2  C1        -5.6400    1.3180    0.2720 C.2     1  UNL1        0.2207
      3  C2        -6.5070    0.3660   -0.0570 C.2     1  UNL1        0.0118
      4  C3        -7.8630   -0.1810   -0.3300 C.3     1  UNL1       -0.0203
      5  C4        -6.7550   -1.0960   -0.4520 C.3     1  UNL1       -0.0203
      6  N2        -4.2650    0.9990    0.3250 N.pl3   1  UNL1       -0.3473
      7  C5        -3.9540    0.1090    1.4390 C.3     1  UNL1        0.0485
      8  C6        -2.9260   -0.8630    0.9200 C.3     1  UNL1       -0.0039
      9  C7        -1.5720   -0.2440    0.8570 C.3     1  UNL1        0.0184
     10  N3        -1.4180    0.7830   -0.1450 N.am    1  UNL1       -0.2939
     11  C8        -0.2690    0.6060   -0.9600 C.2     1  UNL1        0.2495
     12  O1        -0.0610    1.4710   -1.8670 O.2     1  UNL1       -0.2699
     13  C9         0.6510   -0.5230   -0.7740 C.ar    1  UNL1        0.0723
     14  C10        1.7450   -0.4530    0.0950 C.ar    1  UNL1       -0.0433
     15  C11        2.6230   -1.4860    0.2910 C.ar    1  UNL1       -0.0406
     16  C12        3.7910   -1.3940    1.2120 C.3     1  UNL1        0.0171
     17  C13        5.0300   -1.2490    0.4750 C.ar    1  UNL1        0.0736
     18  N4         5.7010   -2.4140    0.2030 N.ar    1  UNL1       -0.1750
     19  N5         6.8060   -2.4630   -0.5010 N.ar    1  UNL1       -0.2425
     20  C14        7.3400   -1.3370   -0.9980 C.ar    1  UNL1        0.2725
     21  O2         8.4190   -1.3680   -1.6890 O.2     1  UNL1       -0.2658
     22  C15        6.7290   -0.1300   -0.7690 C.ar    1  UNL1        0.0496
     23  C16        7.2720    1.0380   -1.2590 C.ar    1  UNL1       -0.0487
     24  C17        6.6230    2.2380   -0.9850 C.ar    1  UNL1       -0.0610
     25  C18        5.4640    2.2640   -0.2400 C.ar    1  UNL1       -0.0611
     26  C19        4.9170    1.0920    0.2530 C.ar    1  UNL1       -0.0521
     27  C20        5.5640   -0.1000   -0.0240 C.ar    1  UNL1        0.0106
     28  C21        2.4310   -2.6900   -0.4090 C.ar    1  UNL1       -0.0555
     29  C22        1.3600   -2.7640   -1.2610 C.ar    1  UNL1       -0.0254
     30  C23        0.4750   -1.7060   -1.4510 C.ar    1  UNL1        0.1355
     31  F1        -0.5630   -1.8570   -2.3130 F       1  UNL1       -0.2047
     32  C24       -2.2110    1.9450   -0.4620 C.3     1  UNL1        0.0480
     33  C25       -3.4060    2.1310    0.4400 C.3     1  UNL1        0.0631
     34 H          -7.1138    2.7593    0.4950 H       1  UNL1        0.2880
     35 H          -5.5319    3.3221    0.7927 H       1  UNL1        0.2880
     36 H          -8.3885    0.1293   -1.2089 H       1  UNL1        0.0316
     37 H          -8.7773   -0.1989    0.2256 H       1  UNL1        0.0316
     38 H          -6.6223   -1.8753    0.2691 H       1  UNL1        0.0316
     39 H          -6.3900   -1.7454   -1.2201 H       1  UNL1        0.0316
     40 H          -3.9742    0.2329    0.8707 H       1  UNL1        0.2495
     41 H          -4.8332   -0.4129    1.7544 H       1  UNL1        0.0693
     42 H          -3.5873    0.6528    2.2844 H       1  UNL1        0.0693
     43 H          -3.2102   -1.1782   -0.0622 H       1  UNL1        0.0316
     44 H          -2.8834   -1.6962    1.5900 H       1  UNL1        0.0316
     45 H          -0.8623   -1.0179    0.6512 H       1  UNL1        0.0466
     46 H          -1.4169    0.2337    1.8018 H       1  UNL1        0.0466
     47 H           1.8989    0.4241    0.6165 H       1  UNL1        0.0629
     48 H           3.8394   -2.2839    1.8041 H       1  UNL1        0.0377
     49 H           3.6645   -0.5328    1.8343 H       1  UNL1        0.0377
     50 H           7.2452   -3.3286   -0.6654 H       1  UNL1        0.1921
     51 H           8.1403    1.0230   -1.8165 H       1  UNL1        0.0625
     52 H           7.0156    3.1219   -1.3452 H       1  UNL1        0.0618
     53 H           4.9997    3.1654   -0.0479 H       1  UNL1        0.0618
     54 H           4.0498    1.1064    0.8123 H       1  UNL1        0.0624
     55 H           3.0729   -3.4887   -0.2858 H       1  UNL1        0.0621
     56 H           1.2030   -3.6401   -1.7833 H       1  UNL1        0.0646
     57 H          -2.5599    1.8509   -1.4691 H       1  UNL1        0.0501
     58 H          -1.5811    2.7991   -0.3250 H       1  UNL1        0.0501
     59 H          -3.0769    2.2283    1.4535 H       1  UNL1        0.0709
     60 H          -3.9373    3.0143    0.1529 H       1  UNL1        0.0709
@<TRIPOS>UNITY_ATOM_ATTR
6 1
charge 1
@<TRIPOS>BOND
     1     1     2    1
     2     2     3    2
     3     2     6    1
     4     3     4    1
     5     3     5    1
     6     4     5    1
     7     6     7    1
     8     6    33    1
     9     7     8    1
    10     8     9    1
    11     9    10    1
    12    10    11   am
    13    10    32    1
    14    11    12    2
    15    11    13    1
    16    13    14   ar
    17    13    30   ar
    18    14    15   ar
    19    15    16    1
    20    15    28   ar
    21    16    17    1
    22    17    18   ar
    23    17    27   ar
    24    18    19   ar
    25    19    20   ar
    26    20    21    2
    27    20    22   ar
    28    22    23   ar
    29    22    27   ar
    30    23    24   ar
    31    24    25   ar
    32    25    26   ar
    33    26    27   ar
    34    28    29   ar
    35    29    30   ar
    36    30    31    1
    37    32    33    1
    38     1    34    1
    39     1    35    1
    40     4    36    1
    41     4    37    1
    42     5    38    1
    43     5    39    1
    44     6    40    1
    45     7    41    1
    46     7    42    1
    47     8    43    1
    48     8    44    1
    49     9    45    1
    50     9    46    1
    51    14    47    1
    52    16    48    1
    53    16    49    1
    54    19    50    1
    55    23    51    1
    56    24    52    1
    57    25    53    1
    58    26    54    1
    59    28    55    1
    60    29    56    1
    61    32    57    1
    62    32    58    1
    63    33    59    1
    64    33    60    1
@<TRIPOS>MOLECULE
../data/bude_mols_rdkit_confs_charged/molecule_92.pdb
 60 64 0 0 0
SMALL
GASTEIGER

@<TRIPOS>ATOM
      1  N1         6.3890   -0.6980   -2.1580 N.pl3   1  UNL1       -0.2541
      2  C1         5.7120    0.1320   -1.2470 C.2     1  UNL1        0.2207
      3  C2         6.3020    0.5100   -0.1300 C.2     1  UNL1        0.0118
      4  C3         6.4800    1.1780    1.1700 C.3     1  UNL1       -0.0203
      5  C4         7.6150    0.3780    0.6820 C.3     1  UNL1       -0.0203
      6  N2         4.3780    0.6090   -1.4490 N.pl3   1  UNL1       -0.3473
      7  C5         3.6520    0.6840   -0.3230 C.3     1  UNL1        0.0485
      8  C6         2.9850    0.8230    0.9020 C.3     1  UNL1       -0.0039
      9  C7         1.7590   -0.1770    0.7700 C.3     1  UNL1        0.0184
     10  N3         1.6710   -0.5320   -0.6860 N.am    1  UNL1       -0.2939
     11  C8         0.3700   -0.1850   -1.1980 C.2     1  UNL1        0.2495
     12  O1         0.0450   -0.3800   -2.3940 O.2     1  UNL1       -0.2699
     13  C9        -0.6370    0.4180   -0.3220 C.ar    1  UNL1        0.0723
     14  C10       -1.5380   -0.3220    0.4110 C.ar    1  UNL1       -0.0433
     15  C11       -2.4570    0.2380    1.2560 C.ar    1  UNL1       -0.0406
     16  C12       -3.4110   -0.5990    2.0170 C.3     1  UNL1        0.0171
     17  C13       -4.8180   -0.3360    1.7790 C.ar    1  UNL1        0.0736
     18  N4        -5.5250    0.4120    2.6810 N.ar    1  UNL1       -0.1750
     19  N5        -6.7940    0.7070    2.5120 N.ar    1  UNL1       -0.2425
     20  C14       -7.5090    0.3110    1.4590 C.ar    1  UNL1        0.2725
     21  O2        -8.7240    0.5800    1.2770 O.2     1  UNL1       -0.2658
     22  C15       -6.8360   -0.4640    0.4960 C.ar    1  UNL1        0.0496
     23  C16       -7.5490   -0.8980   -0.6120 C.ar    1  UNL1       -0.0487
     24  C17       -6.9180   -1.6660   -1.5760 C.ar    1  UNL1       -0.0610
     25  C18       -5.5790   -1.9820   -1.4020 C.ar    1  UNL1       -0.0611
     26  C19       -4.8890   -1.5430   -0.3000 C.ar    1  UNL1       -0.0521
     27  C20       -5.5030   -0.7750    0.6710 C.ar    1  UNL1        0.0106
     28  C21       -2.4510    1.6190    1.3520 C.ar    1  UNL1       -0.0555
     29  C22       -1.5730    2.3770    0.6390 C.ar    1  UNL1       -0.0254
     30  C23       -0.6460    1.7860   -0.2150 C.ar    1  UNL1        0.1355
     31  F1         0.1940    2.6100   -0.8940 F       1  UNL1       -0.2047
     32  C24        2.5540   -1.1070   -1.6070 C.3     1  UNL1        0.0480
     33  C25        3.6410   -0.3580   -2.3330 C.3     1  UNL1        0.0631
     34 H           7.3075   -0.9950   -1.9646 H       1  UNL1        0.2880
     35 H           5.9445   -0.9822   -2.9892 H       1  UNL1        0.2880
     36 H           5.9222    0.8365    2.0168 H       1  UNL1        0.0316
     37 H           6.3807    2.1923    1.4960 H       1  UNL1        0.0316
     38 H           8.5090    0.8594    0.3444 H       1  UNL1        0.0316
     39 H           8.2024   -0.4311    1.0631 H       1  UNL1        0.0316
     40 H           4.7464    0.2193   -0.6234 H       1  UNL1        0.2495
     41 H           3.5326   -0.3790   -0.2977 H       1  UNL1        0.0693
     42 H           3.7041    1.7507   -0.3886 H       1  UNL1        0.0693
     43 H           2.6457    1.8282    1.0412 H       1  UNL1        0.0316
     44 H           3.6096    0.6088    1.7440 H       1  UNL1        0.0316
     45 H           0.8557    0.2973    1.0925 H       1  UNL1        0.0466
     46 H           1.8947   -1.0467    1.3784 H       1  UNL1        0.0466
     47 H          -1.5191   -1.3497    0.3184 H       1  UNL1        0.0629
     48 H          -3.2212   -0.4468    3.0590 H       1  UNL1        0.0377
     49 H          -3.2445   -1.6020    1.6836 H       1  UNL1        0.0377
     50 H          -7.2413    1.2501    3.2006 H       1  UNL1        0.1921
     51 H          -8.5451   -0.6496   -0.7173 H       1  UNL1        0.0625
     52 H          -7.4335   -1.9964   -2.4067 H       1  UNL1        0.0618
     53 H          -5.0949   -2.5550   -2.1108 H       1  UNL1        0.0618
     54 H          -3.8928   -1.7911   -0.1944 H       1  UNL1        0.0624
     55 H          -3.1270    2.0843    1.9778 H       1  UNL1        0.0621
     56 H          -1.5950    3.4045    0.7330 H       1  UNL1        0.0646
     57 H           1.9363   -1.5293   -2.3718 H       1  UNL1        0.0501
     58 H           3.1398   -1.7248   -0.9588 H       1  UNL1        0.0501
     59 H           4.3419   -1.0665   -2.7224 H       1  UNL1        0.0709
     60 H           3.1744    0.2102   -3.1104 H       1  UNL1        0.0709
@<TRIPOS>UNITY_ATOM_ATTR
6 1
charge 1
@<TRIPOS>BOND
     1     1     2    1
     2     2     3    2
     3     2     6    1
     4     3     4    1
     5     3     5    1
     6     4     5    1
     7     6     7    1
     8     6    33    1
     9     7     8    1
    10     8     9    1
    11     9    10    1
    12    10    11   am
    13    10    32    1
    14    11    12    2
    15    11    13    1
    16    13    14   ar
    17    13    30   ar
    18    14    15   ar
    19    15    16    1
    20    15    28   ar
    21    16    17    1
    22    17    18   ar
    23    17    27   ar
    24    18    19   ar
    25    19    20   ar
    26    20    21    2
    27    20    22   ar
    28    22    23   ar
    29    22    27   ar
    30    23    24   ar
    31    24    25   ar
    32    25    26   ar
    33    26    27   ar
    34    28    29   ar
    35    29    30   ar
    36    30    31    1
    37    32    33    1
    38     1    34    1
    39     1    35    1
    40     4    36    1
    41     4    37    1
    42     5    38    1
    43     5    39    1
    44     6    40    1
    45     7    41    1
    46     7    42    1
    47     8    43    1
    48     8    44    1
    49     9    45    1
    50     9    46    1
    51    14    47    1
    52    16    48    1
    53    16    49    1
    54    19    50    1
    55    23    51    1
    56    24    52    1
    57    25    53    1
    58    26    54    1
    59    28    55    1
    60    29    56    1
    61    32    57    1
    62    32    58    1
    63    33    59    1
    64    33    60    1
@<TRIPOS>MOLECULE
../data/bude_mols_rdkit_confs_charged/molecule_92.pdb
 60 64 0 0 0
SMALL
GASTEIGER

@<TRIPOS>ATOM
      1  N1         5.0040   -2.7500    1.2700 N.pl3   1  UNL1       -0.2541
      2  C1         5.1580   -1.5670    0.5060 C.2     1  UNL1        0.2207
      3  C2         6.3460   -1.0160    0.4220 C.2     1  UNL1        0.0118
      4  C3         7.8020   -0.9600    0.7410 C.3     1  UNL1       -0.0203
      5  C4         7.1910    0.0840   -0.1180 C.3     1  UNL1       -0.0203
      6  N2         4.0360   -1.0100   -0.1480 N.pl3   1  UNL1       -0.3473
      7  C5         4.4200   -0.5500   -1.4690 C.3     1  UNL1        0.0485
      8  C6         3.2110   -0.1070   -2.2660 C.3     1  UNL1       -0.0039
      9  C7         2.7620    1.2660   -1.8180 C.3     1  UNL1        0.0184
     10  N3         1.8080    1.0960   -0.7400 N.am    1  UNL1       -0.2939
     11  C8         0.5770    1.7780   -0.8590 C.2     1  UNL1        0.2495
     12  O1         0.3840    2.4830   -1.8800 O.2     1  UNL1       -0.2699
     13  C9        -0.4790    1.7080    0.1380 C.ar    1  UNL1        0.0723
     14  C10       -1.4690    0.7450    0.0870 C.ar    1  UNL1       -0.0433
     15  C11       -2.4570    0.7000    1.0430 C.ar    1  UNL1       -0.0406
     16  C12       -3.5280   -0.3290    1.0010 C.3     1  UNL1        0.0171
     17  C13       -4.6920    0.1560    0.2150 C.ar    1  UNL1        0.0736
     18  N4        -4.6690    1.3790   -0.3370 N.ar    1  UNL1       -0.1750
     19  N5        -5.6720    1.8510   -1.0390 N.ar    1  UNL1       -0.2425
     20  C14       -6.7600    1.1230   -1.2300 C.ar    1  UNL1        0.2725
     21  O2        -7.7450    1.5360   -1.8960 O.2     1  UNL1       -0.2658
     22  C15       -6.8380   -0.1390   -0.6870 C.ar    1  UNL1        0.0496
     23  C16       -7.9470   -0.9420   -0.8540 C.ar    1  UNL1       -0.0487
     24  C17       -8.0240   -2.2120   -0.3070 C.ar    1  UNL1       -0.0610
     25  C18       -6.9450   -2.6650    0.4230 C.ar    1  UNL1       -0.0611
     26  C19       -5.8110   -1.8730    0.6070 C.ar    1  UNL1       -0.0521
     27  C20       -5.7910   -0.6320    0.0460 C.ar    1  UNL1        0.0106
     28  C21       -2.4650    1.6330    2.0780 C.ar    1  UNL1       -0.0555
     29  C22       -1.4880    2.6030    2.1510 C.ar    1  UNL1       -0.0254
     30  C23       -0.5080    2.6290    1.1810 C.ar    1  UNL1        0.1355
     31  F1         0.4840    3.5620    1.1990 F       1  UNL1       -0.2047
     32  C24        2.0330    0.2790    0.4430 C.3     1  UNL1        0.0480
     33  C25        3.5120    0.0500    0.6720 C.3     1  UNL1        0.0631
     34 H           5.7807   -3.1444    1.7287 H       1  UNL1        0.2880
     35 H           4.1202   -3.1778    1.3423 H       1  UNL1        0.2880
     36 H           8.4708   -1.6787    0.3156 H       1  UNL1        0.0316
     37 H           8.3793   -0.9558    1.6419 H       1  UNL1        0.0316
     38 H           7.0730    1.0803    0.2539 H       1  UNL1        0.0316
     39 H           7.3926    0.4715   -1.0948 H       1  UNL1        0.0316
     40 H           4.0570   -1.0145   -1.1323 H       1  UNL1        0.2495
     41 H           4.9076   -1.3482   -1.9887 H       1  UNL1        0.0693
     42 H           5.0789    0.2859   -1.3591 H       1  UNL1        0.0693
     43 H           2.4142   -0.8053   -2.1163 H       1  UNL1        0.0316
     44 H           3.4729   -0.0667   -3.3027 H       1  UNL1        0.0316
     45 H           2.2997    1.7810   -2.6341 H       1  UNL1        0.0466
     46 H           3.6007    1.8409   -1.4848 H       1  UNL1        0.0466
     47 H          -1.4670    0.0515   -0.6773 H       1  UNL1        0.0629
     48 H          -3.8448   -0.5472    1.9995 H       1  UNL1        0.0377
     49 H          -3.1404   -1.2100    0.5336 H       1  UNL1        0.0377
     50 H          -5.6145    2.7541   -1.4267 H       1  UNL1        0.1921
     51 H          -8.7442   -0.5853   -1.4037 H       1  UNL1        0.0625
     52 H          -8.8613   -2.8002   -0.4412 H       1  UNL1        0.0618
     53 H          -6.9770   -3.6079    0.8412 H       1  UNL1        0.0618
     54 H          -5.0075   -2.2189    1.1545 H       1  UNL1        0.0624
     55 H          -3.2070    1.5977    2.7944 H       1  UNL1        0.0621
     56 H          -1.4900    3.2956    2.9160 H       1  UNL1        0.0646
     57 H           1.5488   -0.6662    0.3125 H       1  UNL1        0.0501
     58 H           1.6323    0.7919    1.2923 H       1  UNL1        0.0501
     59 H           4.0389    0.9531    0.4445 H       1  UNL1        0.0709
     60 H           3.6438   -0.2334    1.6953 H       1  UNL1        0.0709
@<TRIPOS>UNITY_ATOM_ATTR
6 1
charge 1
@<TRIPOS>BOND
     1     1     2    1
     2     2     3    2
     3     2     6    1
     4     3     4    1
     5     3     5    1
     6     4     5    1
     7     6     7    1
     8     6    33    1
     9     7     8    1
    10     8     9    1
    11     9    10    1
    12    10    11   am
    13    10    32    1
    14    11    12    2
    15    11    13    1
    16    13    14   ar
    17    13    30   ar
    18    14    15   ar
    19    15    16    1
    20    15    28   ar
    21    16    17    1
    22    17    18   ar
    23    17    27   ar
    24    18    19   ar
    25    19    20   ar
    26    20    21    2
    27    20    22   ar
    28    22    23   ar
    29    22    27   ar
    30    23    24   ar
    31    24    25   ar
    32    25    26   ar
    33    26    27   ar
    34    28    29   ar
    35    29    30   ar
    36    30    31    1
    37    32    33    1
    38     1    34    1
    39     1    35    1
    40     4    36    1
    41     4    37    1
    42     5    38    1
    43     5    39    1
    44     6    40    1
    45     7    41    1
    46     7    42    1
    47     8    43    1
    48     8    44    1
    49     9    45    1
    50     9    46    1
    51    14    47    1
    52    16    48    1
    53    16    49    1
    54    19    50    1
    55    23    51    1
    56    24    52    1
    57    25    53    1
    58    26    54    1
    59    28    55    1
    60    29    56    1
    61    32    57    1
    62    32    58    1
    63    33    59    1
    64    33    60    1
@<TRIPOS>MOLECULE
../data/bude_mols_rdkit_confs_charged/molecule_92.pdb
 60 64 0 0 0
SMALL
GASTEIGER

@<TRIPOS>ATOM
      1  N1        -5.7580   -2.2540   -0.7930 N.pl3   1  UNL1       -0.2541
      2  C1        -5.4640   -1.0860   -0.2050 C.2     1  UNL1        0.2207
      3  C2        -6.1400   -0.3570    0.7060 C.2     1  UNL1        0.0118
      4  C3        -6.9180    0.3810    1.6890 C.3     1  UNL1       -0.0203
      5  C4        -7.4550   -0.9150    1.3820 C.3     1  UNL1       -0.0203
      6  N2        -4.2310   -0.3930   -0.6400 N.pl3   1  UNL1       -0.3473
      7  C5        -4.7380    0.7950   -1.2850 C.3     1  UNL1        0.0485
      8  C6        -3.7120    1.7510   -1.7830 C.3     1  UNL1       -0.0039
      9  C7        -2.8860    2.3210   -0.6770 C.3     1  UNL1        0.0184
     10  N3        -1.7970    1.3570   -0.4290 N.am    1  UNL1       -0.2939
     11  C8        -0.5460    1.7280   -0.8900 C.2     1  UNL1        0.2495
     12  O1        -0.4300    2.8670   -1.4900 O.2     1  UNL1       -0.2699
     13  C9         0.7070    1.0090   -0.8020 C.ar    1  UNL1        0.0723
     14  C10        1.5250    1.1530    0.3020 C.ar    1  UNL1       -0.0433
     15  C11        2.7280    0.4690    0.4030 C.ar    1  UNL1       -0.0406
     16  C12        3.5590    0.5810    1.6110 C.3     1  UNL1        0.0171
     17  C13        4.5900   -0.4610    1.6080 C.ar    1  UNL1        0.0736
     18  N4         4.3460   -1.6270    2.2390 N.ar    1  UNL1       -0.1750
     19  N5         5.2230   -2.6020    2.2160 N.ar    1  UNL1       -0.2425
     20  C14        6.4040   -2.5120    1.5840 C.ar    1  UNL1        0.2725
     21  O2         7.2590   -3.4410    1.5650 O.2     1  UNL1       -0.2658
     22  C15        6.7000   -1.3320    0.9230 C.ar    1  UNL1        0.0496
     23  C16        7.8980   -1.1700    0.2650 C.ar    1  UNL1       -0.0487
     24  C17        8.1590    0.0440   -0.3790 C.ar    1  UNL1       -0.0610
     25  C18        7.2260    1.0540   -0.3570 C.ar    1  UNL1       -0.0611
     26  C19        6.0080    0.9210    0.2980 C.ar    1  UNL1       -0.0521
     27  C20        5.7760   -0.2880    0.9330 C.ar    1  UNL1        0.0106
     28  C21        3.0830   -0.3630   -0.6340 C.ar    1  UNL1       -0.0555
     29  C22        2.2590   -0.5160   -1.7510 C.ar    1  UNL1       -0.0254
     30  C23        1.0700    0.1670   -1.8390 C.ar    1  UNL1        0.1355
     31  F1         0.2230    0.0530   -2.9040 F       1  UNL1       -0.2047
     32  C24       -1.9760    0.0830    0.2390 C.3     1  UNL1        0.0480
     33  C25       -3.4350   -0.1710    0.5330 C.3     1  UNL1        0.0631
     34 H          -6.5696   -2.7462   -0.5316 H       1  UNL1        0.2880
     35 H          -5.1624   -2.6197   -1.4863 H       1  UNL1        0.2880
     36 H          -7.4558    1.2513    1.3755 H       1  UNL1        0.0316
     37 H          -6.6507    0.8476    2.6141 H       1  UNL1        0.0316
     38 H          -7.4013   -1.7074    2.0990 H       1  UNL1        0.0316
     39 H          -8.3935   -1.2997    1.0412 H       1  UNL1        0.0316
     40 H          -4.8818   -1.1299   -0.5885 H       1  UNL1        0.2495
     41 H          -5.3546    1.3131   -0.5805 H       1  UNL1        0.0693
     42 H          -5.2613    0.4528   -2.1533 H       1  UNL1        0.0693
     43 H          -4.2061    2.5522   -2.2919 H       1  UNL1        0.0316
     44 H          -3.0573    1.2168   -2.4394 H       1  UNL1        0.0316
     45 H          -3.4807    2.4418    0.2042 H       1  UNL1        0.0466
     46 H          -2.4990    3.2835   -0.9391 H       1  UNL1        0.0466
     47 H           1.2354    1.7821    1.0671 H       1  UNL1        0.0629
     48 H           2.9419    0.4665    2.4776 H       1  UNL1        0.0377
     49 H           4.0302    1.5416    1.6257 H       1  UNL1        0.0377
     50 H           5.0048   -3.4399    2.6846 H       1  UNL1        0.1921
     51 H           8.5931   -1.9326    0.2470 H       1  UNL1        0.0625
     52 H           9.0548    0.1822   -0.8723 H       1  UNL1        0.0618
     53 H           7.4374    1.9396   -0.8428 H       1  UNL1        0.0618
     54 H           5.3124    1.6832    0.3108 H       1  UNL1        0.0624
     55 H           3.9733   -0.8827   -0.5854 H       1  UNL1        0.0621
     56 H           2.5452   -1.1467   -2.5161 H       1  UNL1        0.0646
     57 H          -1.4293    0.0899    1.1588 H       1  UNL1        0.0501
     58 H          -1.6166   -0.6934   -0.4036 H       1  UNL1        0.0501
     59 H          -3.5076   -1.0358    1.1589 H       1  UNL1        0.0709
     60 H          -3.8159    0.7097    1.0065 H       1  UNL1        0.0709
@<TRIPOS>UNITY_ATOM_ATTR
6 1
charge 1
@<TRIPOS>BOND
     1     1     2    1
     2     2     3    2
     3     2     6    1
     4     3     4    1
     5     3     5    1
     6     4     5    1
     7     6     7    1
     8     6    33    1
     9     7     8    1
    10     8     9    1
    11     9    10    1
    12    10    11   am
    13    10    32    1
    14    11    12    2
    15    11    13    1
    16    13    14   ar
    17    13    30   ar
    18    14    15   ar
    19    15    16    1
    20    15    28   ar
    21    16    17    1
    22    17    18   ar
    23    17    27   ar
    24    18    19   ar
    25    19    20   ar
    26    20    21    2
    27    20    22   ar
    28    22    23   ar
    29    22    27   ar
    30    23    24   ar
    31    24    25   ar
    32    25    26   ar
    33    26    27   ar
    34    28    29   ar
    35    29    30   ar
    36    30    31    1
    37    32    33    1
    38     1    34    1
    39     1    35    1
    40     4    36    1
    41     4    37    1
    42     5    38    1
    43     5    39    1
    44     6    40    1
    45     7    41    1
    46     7    42    1
    47     8    43    1
    48     8    44    1
    49     9    45    1
    50     9    46    1
    51    14    47    1
    52    16    48    1
    53    16    49    1
    54    19    50    1
    55    23    51    1
    56    24    52    1
    57    25    53    1
    58    26    54    1
    59    28    55    1
    60    29    56    1
    61    32    57    1
    62    32    58    1
    63    33    59    1
    64    33    60    1
@<TRIPOS>MOLECULE
../data/bude_mols_rdkit_confs_charged/molecule_92.pdb
 60 64 0 0 0
SMALL
GASTEIGER

@<TRIPOS>ATOM
      1  N1         5.6220   -1.5080    1.5740 N.pl3   1  UNL1       -0.2541
      2  C1         5.6740   -0.5960    0.5070 C.2     1  UNL1        0.2207
      3  C2         6.8360   -0.4740   -0.1400 C.2     1  UNL1        0.0118
      4  C3         8.2510   -0.7540   -0.4380 C.3     1  UNL1       -0.0203
      5  C4         7.5950    0.2230   -1.2700 C.3     1  UNL1       -0.0203
      6  N2         4.5500    0.1580    0.1350 N.pl3   1  UNL1       -0.3473
      7  C5         3.6860    0.3300    1.2850 C.3     1  UNL1        0.0485
      8  C6         2.8720    1.5840    1.0230 C.3     1  UNL1       -0.0039
      9  C7         1.5920    1.1750    0.3820 C.3     1  UNL1        0.0184
     10  N3         1.5680   -0.2020   -0.0390 N.am    1  UNL1       -0.2939
     11  C8         0.3410   -0.8570    0.2330 C.2     1  UNL1        0.2495
     12  O1         0.1780   -2.0600   -0.0790 O.2     1  UNL1       -0.2699
     13  C9        -0.7820   -0.1770    0.8820 C.ar    1  UNL1        0.0723
     14  C10       -1.7510    0.4800    0.1570 C.ar    1  UNL1       -0.0433
     15  C11       -2.8190    1.1230    0.8000 C.ar    1  UNL1       -0.0406
     16  C12       -3.7810    1.8120   -0.0870 C.3     1  UNL1        0.0171
     17  C13       -4.6050    0.8390   -0.8060 C.ar    1  UNL1        0.0736
     18  N4        -4.2100    0.4710   -2.0580 N.ar    1  UNL1       -0.1750
     19  N5        -4.8270   -0.4190   -2.7870 N.ar    1  UNL1       -0.2425
     20  C14       -5.9160   -1.0340   -2.3220 C.ar    1  UNL1        0.2725
     21  O2        -6.5280   -1.8980   -3.0090 O.2     1  UNL1       -0.2658
     22  C15       -6.4150   -0.7490   -1.0720 C.ar    1  UNL1        0.0496
     23  C16       -7.5460   -1.3620   -0.5760 C.ar    1  UNL1       -0.0487
     24  C17       -8.0050   -1.0180    0.6840 C.ar    1  UNL1       -0.0610
     25  C18       -7.3140   -0.0650    1.4150 C.ar    1  UNL1       -0.0611
     26  C19       -6.1860    0.5440    0.9170 C.ar    1  UNL1       -0.0521
     27  C20       -5.7260    0.2110   -0.3220 C.ar    1  UNL1        0.0106
     28  C21       -2.9240    1.1160    2.1570 C.ar    1  UNL1       -0.0555
     29  C22       -1.9470    0.4520    2.9120 C.ar    1  UNL1       -0.0254
     30  C23       -0.9060   -0.1750    2.2710 C.ar    1  UNL1        0.1355
     31  F1         0.0340   -0.8130    2.9920 F       1  UNL1       -0.2047
     32  C24        2.5590   -1.0410   -0.6850 C.3     1  UNL1        0.0480
     33  C25        3.8400   -0.3420   -0.9970 C.3     1  UNL1        0.0631
     34 H           6.4226   -2.0266    1.8178 H       1  UNL1        0.2880
     35 H           4.7850   -1.6287    2.0781 H       1  UNL1        0.2880
     36 H           8.5233   -1.7014   -0.8542 H       1  UNL1        0.0316
     37 H           9.1449   -0.7406    0.1500 H       1  UNL1        0.0316
     38 H           7.8511    1.2585   -1.1857 H       1  UNL1        0.0316
     39 H           7.4455    0.3481   -2.3221 H       1  UNL1        0.0316
     40 H           4.1947    0.8149   -0.5065 H       1  UNL1        0.2495
     41 H           4.2707    0.4468    2.1735 H       1  UNL1        0.0693
     42 H           3.0536   -0.5214    1.4269 H       1  UNL1        0.0693
     43 H           3.4121    2.2380    0.3708 H       1  UNL1        0.0316
     44 H           2.6803    2.1015    1.9397 H       1  UNL1        0.0316
     45 H           1.4317    1.7933   -0.4765 H       1  UNL1        0.0466
     46 H           0.8238    1.2898    1.1179 H       1  UNL1        0.0466
     47 H          -1.6906    0.4996   -0.8730 H       1  UNL1        0.0629
     48 H          -3.2430    2.4082   -0.7941 H       1  UNL1        0.0377
     49 H          -4.4184    2.4310    0.5091 H       1  UNL1        0.0377
     50 H          -4.4870   -0.6376   -3.6847 H       1  UNL1        0.1921
     51 H          -8.0449   -2.0695   -1.1378 H       1  UNL1        0.0625
     52 H          -8.8498   -1.4650    1.0733 H       1  UNL1        0.0618
     53 H          -7.6536    0.1937    2.3546 H       1  UNL1        0.0618
     54 H          -5.6889    1.2516    1.4802 H       1  UNL1        0.0624
     55 H          -3.7115    1.5927    2.6235 H       1  UNL1        0.0621
     56 H          -2.0093    0.4343    3.9420 H       1  UNL1        0.0646
     57 H           2.1440   -1.4065   -1.6010 H       1  UNL1        0.0501
     58 H           2.7954   -1.8249    0.0038 H       1  UNL1        0.0501
     59 H           4.4774   -1.0320   -1.5094 H       1  UNL1        0.0709
     60 H           3.5766    0.5130   -1.5840 H       1  UNL1        0.0709
@<TRIPOS>UNITY_ATOM_ATTR
6 1
charge 1
@<TRIPOS>BOND
     1     1     2    1
     2     2     3    2
     3     2     6    1
     4     3     4    1
     5     3     5    1
     6     4     5    1
     7     6     7    1
     8     6    33    1
     9     7     8    1
    10     8     9    1
    11     9    10    1
    12    10    11   am
    13    10    32    1
    14    11    12    2
    15    11    13    1
    16    13    14   ar
    17    13    30   ar
    18    14    15   ar
    19    15    16    1
    20    15    28   ar
    21    16    17    1
    22    17    18   ar
    23    17    27   ar
    24    18    19   ar
    25    19    20   ar
    26    20    21    2
    27    20    22   ar
    28    22    23   ar
    29    22    27   ar
    30    23    24   ar
    31    24    25   ar
    32    25    26   ar
    33    26    27   ar
    34    28    29   ar
    35    29    30   ar
    36    30    31    1
    37    32    33    1
    38     1    34    1
    39     1    35    1
    40     4    36    1
    41     4    37    1
    42     5    38    1
    43     5    39    1
    44     6    40    1
    45     7    41    1
    46     7    42    1
    47     8    43    1
    48     8    44    1
    49     9    45    1
    50     9    46    1
    51    14    47    1
    52    16    48    1
    53    16    49    1
    54    19    50    1
    55    23    51    1
    56    24    52    1
    57    25    53    1
    58    26    54    1
    59    28    55    1
    60    29    56    1
    61    32    57    1
    62    32    58    1
    63    33    59    1
    64    33    60    1
@<TRIPOS>MOLECULE
../data/bude_mols_rdkit_confs_charged/molecule_92.pdb
 60 64 0 0 0
SMALL
GASTEIGER

@<TRIPOS>ATOM
      1  N1        -5.4840    2.3970    0.3720 N.pl3   1  UNL1       -0.2541
      2  C1        -5.3420    1.0050    0.1790 C.2     1  UNL1        0.2207
      3  C2        -6.3840    0.2020    0.0160 C.2     1  UNL1        0.0118
      4  C3        -7.8390    0.0510   -0.0730 C.3     1  UNL1       -0.0203
      5  C4        -6.9820   -1.1080   -0.1990 C.3     1  UNL1       -0.0203
      6  N2        -4.0070    0.4710    0.1610 N.pl3   1  UNL1       -0.3473
      7  C5        -3.5380    0.2850   -1.1710 C.3     1  UNL1        0.0485
      8  C6        -2.9700   -1.0620   -1.4820 C.3     1  UNL1       -0.0039
      9  C7        -1.6460   -1.1980   -0.8070 C.3     1  UNL1        0.0184
     10  N3        -1.6630   -0.7830    0.5810 N.am    1  UNL1       -0.2939
     11  C8        -0.5580   -0.0070    1.0360 C.2     1  UNL1        0.2495
     12  O1        -0.4710    0.3960    2.2140 O.2     1  UNL1       -0.2699
     13  C9         0.5150    0.3370    0.1160 C.ar    1  UNL1        0.0723
     14  C10        1.6100   -0.4340   -0.1300 C.ar    1  UNL1       -0.0433
     15  C11        2.6170   -0.0820   -1.0310 C.ar    1  UNL1       -0.0406
     16  C12        3.7220   -1.0210   -1.2340 C.3     1  UNL1        0.0171
     17  C13        4.6820   -1.0300   -0.1020 C.ar    1  UNL1        0.0736
     18  N4         4.5290   -1.9780    0.8860 N.ar    1  UNL1       -0.1750
     19  N5         5.3020   -2.0460    1.9420 N.ar    1  UNL1       -0.2425
     20  C14        6.3110   -1.1890    2.1430 C.ar    1  UNL1        0.2725
     21  O2         7.0480   -1.2840    3.1890 O.2     1  UNL1       -0.2658
     22  C15        6.5380   -0.2110    1.2080 C.ar    1  UNL1        0.0496
     23  C16        7.5970    0.6670    1.4120 C.ar    1  UNL1       -0.0487
     24  C17        7.8010    1.6220    0.4410 C.ar    1  UNL1       -0.0610
     25  C18        6.9930    1.6970   -0.6710 C.ar    1  UNL1       -0.0611
     26  C19        5.9460    0.8120   -0.8500 C.ar    1  UNL1       -0.0521
     27  C20        5.7110   -0.1460    0.0870 C.ar    1  UNL1        0.0106
     28  C21        2.4680    1.1040   -1.6840 C.ar    1  UNL1       -0.0555
     29  C22        1.3670    1.9330   -1.4720 C.ar    1  UNL1       -0.0254
     30  C23        0.4150    1.5370   -0.5800 C.ar    1  UNL1        0.1355
     31  F1        -0.6470    2.3420   -0.3800 F       1  UNL1       -0.2047
     32  C24       -2.6800   -1.0720    1.5570 C.3     1  UNL1        0.0480
     33  C25       -4.0220   -0.7000    0.9870 C.3     1  UNL1        0.0631
     34 H          -6.3810    2.8024    0.3908 H       1  UNL1        0.2880
     35 H          -4.6860    2.9618    0.4878 H       1  UNL1        0.2880
     36 H          -8.3643    0.4234   -0.9276 H       1  UNL1        0.0316
     37 H          -8.6668    0.3157    0.5512 H       1  UNL1        0.0316
     38 H          -6.9571   -1.8401    0.5809 H       1  UNL1        0.0316
     39 H          -6.8619   -1.8796   -0.9305 H       1  UNL1        0.0316
     40 H          -4.2274    0.9266   -0.6834 H       1  UNL1        0.2495
     41 H          -2.7751    1.0126   -1.3543 H       1  UNL1        0.0693
     42 H          -4.3992    0.3873   -1.7977 H       1  UNL1        0.0693
     43 H          -2.8456   -1.1634   -2.5399 H       1  UNL1        0.0316
     44 H          -3.6344   -1.8243   -1.1322 H       1  UNL1        0.0316
     45 H          -0.9340   -0.5963   -1.3323 H       1  UNL1        0.0466
     46 H          -1.3880   -2.2363   -0.8233 H       1  UNL1        0.0466
     47 H           1.7007   -1.3280    0.3775 H       1  UNL1        0.0629
     48 H           4.2462   -0.7451   -2.1251 H       1  UNL1        0.0377
     49 H           3.3022   -2.0023   -1.3093 H       1  UNL1        0.0377
     50 H           5.1354   -2.7503    2.6094 H       1  UNL1        0.1921
     51 H           8.1990    0.6060    2.2480 H       1  UNL1        0.0625
     52 H           8.5756    2.2953    0.5492 H       1  UNL1        0.0618
     53 H           7.1713    2.4242   -1.3812 H       1  UNL1        0.0618
     54 H           5.3473    0.8776   -1.6880 H       1  UNL1        0.0624
     55 H           3.1929    1.3984   -2.3570 H       1  UNL1        0.0621
     56 H           1.2748    2.8269   -1.9793 H       1  UNL1        0.0646
     57 H          -2.4971   -0.5042    2.4453 H       1  UNL1        0.0501
     58 H          -2.6650   -2.1142    1.7987 H       1  UNL1        0.0501
     59 H          -4.3755   -1.5208    0.3986 H       1  UNL1        0.0709
     60 H          -4.6584   -0.4806    1.8187 H       1  UNL1        0.0709
@<TRIPOS>UNITY_ATOM_ATTR
6 1
charge 1
@<TRIPOS>BOND
     1     1     2    1
     2     2     3    2
     3     2     6    1
     4     3     4    1
     5     3     5    1
     6     4     5    1
     7     6     7    1
     8     6    33    1
     9     7     8    1
    10     8     9    1
    11     9    10    1
    12    10    11   am
    13    10    32    1
    14    11    12    2
    15    11    13    1
    16    13    14   ar
    17    13    30   ar
    18    14    15   ar
    19    15    16    1
    20    15    28   ar
    21    16    17    1
    22    17    18   ar
    23    17    27   ar
    24    18    19   ar
    25    19    20   ar
    26    20    21    2
    27    20    22   ar
    28    22    23   ar
    29    22    27   ar
    30    23    24   ar
    31    24    25   ar
    32    25    26   ar
    33    26    27   ar
    34    28    29   ar
    35    29    30   ar
    36    30    31    1
    37    32    33    1
    38     1    34    1
    39     1    35    1
    40     4    36    1
    41     4    37    1
    42     5    38    1
    43     5    39    1
    44     6    40    1
    45     7    41    1
    46     7    42    1
    47     8    43    1
    48     8    44    1
    49     9    45    1
    50     9    46    1
    51    14    47    1
    52    16    48    1
    53    16    49    1
    54    19    50    1
    55    23    51    1
    56    24    52    1
    57    25    53    1
    58    26    54    1
    59    28    55    1
    60    29    56    1
    61    32    57    1
    62    32    58    1
    63    33    59    1
    64    33    60    1
@<TRIPOS>MOLECULE
../data/bude_mols_rdkit_confs_charged/molecule_92.pdb
 60 64 0 0 0
SMALL
GASTEIGER

@<TRIPOS>ATOM
      1  N1        -6.6950   -1.7970    0.8900 N.pl3   1  UNL1       -0.2541
      2  C1        -5.8830   -0.8670    0.1440 C.2     1  UNL1        0.2207
      3  C2        -6.3860    0.2850   -0.2210 C.2     1  UNL1        0.0118
      4  C3        -7.5620    1.1930   -0.2200 C.3     1  UNL1       -0.0203
      5  C4        -6.2820    1.6190   -0.8990 C.3     1  UNL1       -0.0203
      6  N2        -4.5590   -1.3170   -0.1140 N.pl3   1  UNL1       -0.3473
      7  C5        -3.6670   -1.0220    0.8440 C.3     1  UNL1        0.0485
      8  C6        -2.8150   -0.7590    1.9220 C.3     1  UNL1       -0.0039
      9  C7        -1.7390    0.2360    1.3130 C.3     1  UNL1        0.0184
     10  N3        -1.8920    0.1480   -0.1790 N.am    1  UNL1       -0.2939
     11  C8        -0.6570   -0.2520   -0.7760 C.2     1  UNL1        0.2495
     12  O1        -0.5430   -0.3970   -2.0210 O.2     1  UNL1       -0.2699
     13  C9         0.5570   -0.5220    0.0050 C.ar    1  UNL1        0.0723
     14  C10        1.4950    0.4150    0.2870 C.ar    1  UNL1       -0.0433
     15  C11        2.6610    0.1760    1.0360 C.ar    1  UNL1       -0.0406
     16  C12        3.6190    1.2960    1.2760 C.3     1  UNL1        0.0171
     17  C13        4.6080    1.4510    0.1750 C.ar    1  UNL1        0.0736
     18  N4         4.3240    2.2830   -0.8510 N.ar    1  UNL1       -0.1750
     19  N5         5.0720    2.4640   -1.9170 N.ar    1  UNL1       -0.2425
     20  C14        6.2230    1.7820   -2.0330 C.ar    1  UNL1        0.2725
     21  O2         6.9910    1.9040   -3.0320 O.2     1  UNL1       -0.2658
     22  C15        6.5980    0.9080   -1.0320 C.ar    1  UNL1        0.0496
     23  C16        7.7810    0.2020   -1.1020 C.ar    1  UNL1       -0.0487
     24  C17        8.1380   -0.6450   -0.0830 C.ar    1  UNL1       -0.0610
     25  C18        7.3380   -0.8130    1.0220 C.ar    1  UNL1       -0.0611
     26  C19        6.1440   -0.0960    1.0850 C.ar    1  UNL1       -0.0521
     27  C20        5.7860    0.7440    0.0760 C.ar    1  UNL1        0.0106
     28  C21        2.8110   -1.1060    1.4880 C.ar    1  UNL1       -0.0555
     29  C22        1.8560   -2.0930    1.2100 C.ar    1  UNL1       -0.0254
     30  C23        0.7270   -1.8050    0.4680 C.ar    1  UNL1        0.1355
     31  F1        -0.2100   -2.7560    0.1910 F       1  UNL1       -0.2047
     32  C24       -2.9600    0.3660   -1.0590 C.3     1  UNL1        0.0480
     33  C25       -4.0280   -0.6670   -1.3580 C.3     1  UNL1        0.0631
     34 H          -7.6259   -1.5680    1.1140 H       1  UNL1        0.2880
     35 H          -6.3183   -2.6607    1.1751 H       1  UNL1        0.2880
     36 H          -7.8697    1.6685    0.6878 H       1  UNL1        0.0316
     37 H          -8.5850    1.1057   -0.5214 H       1  UNL1        0.0316
     38 H          -6.2335    1.6769   -1.9663 H       1  UNL1        0.0316
     39 H          -5.6254    2.4607   -0.8267 H       1  UNL1        0.0316
     40 H          -3.9648   -0.5695    0.1256 H       1  UNL1        0.2495
     41 H          -3.6241   -0.0010    0.5267 H       1  UNL1        0.0693
     42 H          -3.6495   -2.0574    1.1134 H       1  UNL1        0.0693
     43 H          -2.3504   -1.6579    2.2699 H       1  UNL1        0.0316
     44 H          -3.3280   -0.3501    2.7673 H       1  UNL1        0.0316
     45 H          -0.7526   -0.0596    1.6037 H       1  UNL1        0.0466
     46 H          -1.8867    1.2359    1.6640 H       1  UNL1        0.0466
     47 H           1.3429    1.3702   -0.0730 H       1  UNL1        0.0629
     48 H           4.1475    1.1053    2.1866 H       1  UNL1        0.0377
     49 H           3.0511    2.2012    1.3304 H       1  UNL1        0.0377
     50 H           4.7917    3.0919   -2.6216 H       1  UNL1        0.1921
     51 H           8.3984    0.3109   -1.9218 H       1  UNL1        0.0625
     52 H           9.0260   -1.1669   -0.1477 H       1  UNL1        0.0618
     53 H           7.6136   -1.4522    1.7839 H       1  UNL1        0.0618
     54 H           5.5259   -0.2033    1.9044 H       1  UNL1        0.0624
     55 H           3.6443   -1.3514    2.0451 H       1  UNL1        0.0621
     56 H           1.9985   -3.0513    1.5656 H       1  UNL1        0.0646
     57 H          -2.5159    0.6073   -2.0021 H       1  UNL1        0.0501
     58 H          -3.5254    1.0975   -0.5203 H       1  UNL1        0.0501
     59 H          -4.8374   -0.1870   -1.8673 H       1  UNL1        0.0709
     60 H          -3.5834   -1.4309   -1.9611 H       1  UNL1        0.0709
@<TRIPOS>UNITY_ATOM_ATTR
6 1
charge 1
@<TRIPOS>BOND
     1     1     2    1
     2     2     3    2
     3     2     6    1
     4     3     4    1
     5     3     5    1
     6     4     5    1
     7     6     7    1
     8     6    33    1
     9     7     8    1
    10     8     9    1
    11     9    10    1
    12    10    11   am
    13    10    32    1
    14    11    12    2
    15    11    13    1
    16    13    14   ar
    17    13    30   ar
    18    14    15   ar
    19    15    16    1
    20    15    28   ar
    21    16    17    1
    22    17    18   ar
    23    17    27   ar
    24    18    19   ar
    25    19    20   ar
    26    20    21    2
    27    20    22   ar
    28    22    23   ar
    29    22    27   ar
    30    23    24   ar
    31    24    25   ar
    32    25    26   ar
    33    26    27   ar
    34    28    29   ar
    35    29    30   ar
    36    30    31    1
    37    32    33    1
    38     1    34    1
    39     1    35    1
    40     4    36    1
    41     4    37    1
    42     5    38    1
    43     5    39    1
    44     6    40    1
    45     7    41    1
    46     7    42    1
    47     8    43    1
    48     8    44    1
    49     9    45    1
    50     9    46    1
    51    14    47    1
    52    16    48    1
    53    16    49    1
    54    19    50    1
    55    23    51    1
    56    24    52    1
    57    25    53    1
    58    26    54    1
    59    28    55    1
    60    29    56    1
    61    32    57    1
    62    32    58    1
    63    33    59    1
    64    33    60    1
@<TRIPOS>MOLECULE
../data/bude_mols_rdkit_confs_charged/molecule_92.pdb
 60 64 0 0 0
SMALL
GASTEIGER

@<TRIPOS>ATOM
      1  N1         5.6570    1.6340    2.0280 N.pl3   1  UNL1       -0.2541
      2  C1         5.5410    0.9950    0.7640 C.2     1  UNL1        0.2207
      3  C2         6.5840    0.7640    0.0000 C.2     1  UNL1        0.0118
      4  C3         8.0780    0.9010   -0.1460 C.3     1  UNL1       -0.0203
      5  C4         7.2900    0.2710   -1.2010 C.3     1  UNL1       -0.0203
      6  N2         4.2310    0.6140    0.3620 N.pl3   1  UNL1       -0.3473
      7  C5         4.1910   -0.1470   -0.8440 C.3     1  UNL1        0.0485
      8  C6         2.8900   -0.8390   -1.0300 C.3     1  UNL1       -0.0039
      9  C7         1.9080   -0.7180    0.0830 C.3     1  UNL1        0.0184
     10  N3         1.4380    0.6350    0.3080 N.am    1  UNL1       -0.2939
     11  C8         0.1810    1.0250   -0.1540 C.2     1  UNL1        0.2495
     12  O1        -0.2110    2.2030    0.0460 O.2     1  UNL1       -0.2699
     13  C9        -0.7470    0.1640   -0.8710 C.ar    1  UNL1        0.0723
     14  C10       -1.6690   -0.5750   -0.1630 C.ar    1  UNL1       -0.0433
     15  C11       -2.5940   -1.4220   -0.7690 C.ar    1  UNL1       -0.0406
     16  C12       -3.5060   -2.1640    0.1330 C.3     1  UNL1        0.0171
     17  C13       -4.5320   -1.2950    0.7290 C.ar    1  UNL1        0.0736
     18  N4        -4.2610   -0.8130    1.9720 N.ar    1  UNL1       -0.1750
     19  N5        -5.0610    0.0080    2.6140 N.ar    1  UNL1       -0.2425
     20  C14       -6.2080    0.4080    2.0430 C.ar    1  UNL1        0.2725
     21  O2        -6.9950    1.1960    2.6350 O.2     1  UNL1       -0.2658
     22  C15       -6.5350   -0.0500    0.7830 C.ar    1  UNL1        0.0496
     23  C16       -7.7200    0.3360    0.1690 C.ar    1  UNL1       -0.0487
     24  C17       -8.0710   -0.1180   -1.0820 C.ar    1  UNL1       -0.0610
     25  C18       -7.1880   -0.9790   -1.6980 C.ar    1  UNL1       -0.0611
     26  C19       -6.0060   -1.3890   -1.1330 C.ar    1  UNL1       -0.0521
     27  C20       -5.6820   -0.9140    0.1210 C.ar    1  UNL1        0.0106
     28  C21       -2.5700   -1.5100   -2.1300 C.ar    1  UNL1       -0.0555
     29  C22       -1.6340   -0.7610   -2.8620 C.ar    1  UNL1       -0.0254
     30  C23       -0.7280    0.0700   -2.2460 C.ar    1  UNL1        0.1355
     31  F1         0.1500    0.7650   -3.0090 F       1  UNL1       -0.2047
     32  C24        2.2040    1.6600    1.0100 C.3     1  UNL1        0.0480
     33  C25        3.4730    1.8610    0.2400 C.3     1  UNL1        0.0631
     34 H           6.5403    1.9191    2.3562 H       1  UNL1        0.2880
     35 H           4.8541    1.7916    2.5754 H       1  UNL1        0.2880
     36 H           8.7320    0.3095    0.4600 H       1  UNL1        0.0316
     37 H           8.7729    1.7134   -0.1011 H       1  UNL1        0.0316
     38 H           7.1589    0.7732   -2.1367 H       1  UNL1        0.0316
     39 H           7.3361   -0.6714   -1.7056 H       1  UNL1        0.0316
     40 H           3.8876    0.7881    1.2681 H       1  UNL1        0.2495
     41 H           4.9698   -0.8802   -0.8144 H       1  UNL1        0.0693
     42 H           4.3225    0.5293   -1.6627 H       1  UNL1        0.0693
     43 H           3.0929   -1.8798   -1.1728 H       1  UNL1        0.0316
     44 H           2.4300   -0.3570   -1.8672 H       1  UNL1        0.0316
     45 H           2.3726   -1.0669    0.9815 H       1  UNL1        0.0466
     46 H           1.0542   -1.3015   -0.1917 H       1  UNL1        0.0466
     47 H          -1.6747   -0.4974    0.8661 H       1  UNL1        0.0629
     48 H          -2.9290   -2.6041    0.9193 H       1  UNL1        0.0377
     49 H          -4.0067   -2.9092   -0.4492 H       1  UNL1        0.0377
     50 H          -4.8195    0.3294    3.5127 H       1  UNL1        0.1921
     51 H          -8.3548    0.9812    0.6648 H       1  UNL1        0.0625
     52 H          -8.9512    0.1717   -1.5362 H       1  UNL1        0.0618
     53 H          -7.4290   -1.3352   -2.6361 H       1  UNL1        0.0618
     54 H          -5.3762   -2.0357   -1.6333 H       1  UNL1        0.0624
     55 H          -3.2377   -2.1252   -2.6205 H       1  UNL1        0.0621
     56 H          -1.6260   -0.8365   -3.8912 H       1  UNL1        0.0646
     57 H           2.4254    1.3363    2.0055 H       1  UNL1        0.0501
     58 H           1.6493    2.5725    1.0777 H       1  UNL1        0.0501
     59 H           3.2545    2.0624   -0.7879 H       1  UNL1        0.0709
     60 H           4.0296    2.6926    0.6188 H       1  UNL1        0.0709
@<TRIPOS>UNITY_ATOM_ATTR
6 1
charge 1
@<TRIPOS>BOND
     1     1     2    1
     2     2     3    2
     3     2     6    1
     4     3     4    1
     5     3     5    1
     6     4     5    1
     7     6     7    1
     8     6    33    1
     9     7     8    1
    10     8     9    1
    11     9    10    1
    12    10    11   am
    13    10    32    1
    14    11    12    2
    15    11    13    1
    16    13    14   ar
    17    13    30   ar
    18    14    15   ar
    19    15    16    1
    20    15    28   ar
    21    16    17    1
    22    17    18   ar
    23    17    27   ar
    24    18    19   ar
    25    19    20   ar
    26    20    21    2
    27    20    22   ar
    28    22    23   ar
    29    22    27   ar
    30    23    24   ar
    31    24    25   ar
    32    25    26   ar
    33    26    27   ar
    34    28    29   ar
    35    29    30   ar
    36    30    31    1
    37    32    33    1
    38     1    34    1
    39     1    35    1
    40     4    36    1
    41     4    37    1
    42     5    38    1
    43     5    39    1
    44     6    40    1
    45     7    41    1
    46     7    42    1
    47     8    43    1
    48     8    44    1
    49     9    45    1
    50     9    46    1
    51    14    47    1
    52    16    48    1
    53    16    49    1
    54    19    50    1
    55    23    51    1
    56    24    52    1
    57    25    53    1
    58    26    54    1
    59    28    55    1
    60    29    56    1
    61    32    57    1
    62    32    58    1
    63    33    59    1
    64    33    60    1
@<TRIPOS>MOLECULE
../data/bude_mols_rdkit_confs_charged/molecule_92.pdb
 60 64 0 0 0
SMALL
GASTEIGER

@<TRIPOS>ATOM
      1  N1        -5.9510    2.1790   -0.9770 N.pl3   1  UNL1       -0.2541
      2  C1        -5.4010    1.0730   -0.2710 C.2     1  UNL1        0.2207
      3  C2        -5.7260    0.8150    0.9780 C.2     1  UNL1        0.0118
      4  C3        -5.7110    0.0790    2.2880 C.3     1  UNL1       -0.0203
      5  C4        -6.5470    1.2390    2.1750 C.3     1  UNL1       -0.0203
      6  N2        -4.4800    0.2630   -0.9890 N.pl3   1  UNL1       -0.3473
      7  C5        -4.2390   -1.0190   -0.4200 C.3     1  UNL1        0.0485
      8  C6        -2.9790   -1.1680    0.3640 C.3     1  UNL1       -0.0039
      9  C7        -1.8090   -1.6150   -0.4990 C.3     1  UNL1        0.0184
     10  N3        -1.5120   -0.6410   -1.5250 N.am    1  UNL1       -0.2939
     11  C8        -0.1430   -0.4810   -1.8340 C.2     1  UNL1        0.2495
     12  O1         0.2080    0.3630   -2.7260 O.2     1  UNL1       -0.2699
     13  C9         0.9460   -1.2160   -1.2060 C.ar    1  UNL1        0.0723
     14  C10        1.5620   -0.7300   -0.0460 C.ar    1  UNL1       -0.0433
     15  C11        2.5840   -1.3710    0.5860 C.ar    1  UNL1       -0.0406
     16  C12        3.2930   -0.9240    1.8010 C.3     1  UNL1        0.0171
     17  C13        4.6690   -0.4890    1.4320 C.ar    1  UNL1        0.0736
     18  N4         5.6940   -1.3660    1.5430 N.ar    1  UNL1       -0.1750
     19  N5         6.9180   -1.0710    1.1940 N.ar    1  UNL1       -0.2425
     20  C14        7.2370    0.1310    0.7000 C.ar    1  UNL1        0.2725
     21  O2         8.3910    0.4620    0.3520 O.2     1  UNL1       -0.2658
     22  C15        6.2360    1.0680    0.5640 C.ar    1  UNL1        0.0496
     23  C16        6.5110    2.3380    0.0700 C.ar    1  UNL1       -0.0487
     24  C17        5.5510    3.3140   -0.0710 C.ar    1  UNL1       -0.0610
     25  C18        4.2740    2.9610    0.3100 C.ar    1  UNL1       -0.0611
     26  C19        3.9500    1.7110    0.8070 C.ar    1  UNL1       -0.0521
     27  C20        4.9240    0.7540    0.9370 C.ar    1  UNL1        0.0106
     28  C21        3.0070   -2.5790    0.0070 C.ar    1  UNL1       -0.0555
     29  C22        2.4050   -3.0570   -1.1290 C.ar    1  UNL1       -0.0254
     30  C23        1.3850   -2.3990   -1.7450 C.ar    1  UNL1        0.1355
     31  F1         0.7750   -2.8670   -2.8810 F       1  UNL1       -0.2047
     32  C24       -2.4510    0.1720   -2.2520 C.3     1  UNL1        0.0480
     33  C25       -3.2950    1.0170   -1.3240 C.3     1  UNL1        0.0631
     34 H          -6.5947    2.7762   -0.5319 H       1  UNL1        0.2880
     35 H          -5.6879    2.3471   -1.9107 H       1  UNL1        0.2880
     36 H          -4.8375    0.1136    2.9051 H       1  UNL1        0.0316
     37 H          -5.8818   -0.9379    2.5737 H       1  UNL1        0.0316
     38 H          -7.6110    1.1276    2.1562 H       1  UNL1        0.0316
     39 H          -6.6470    2.1476    2.7312 H       1  UNL1        0.0316
     40 H          -3.8411   -0.0037   -1.6889 H       1  UNL1        0.2495
     41 H          -4.2119   -1.7303   -1.2189 H       1  UNL1        0.0693
     42 H          -5.0316   -1.1730    0.2821 H       1  UNL1        0.0693
     43 H          -3.1366   -1.8953    1.1328 H       1  UNL1        0.0316
     44 H          -2.7348   -0.2105    0.7744 H       1  UNL1        0.0316
     45 H          -2.0545   -2.5471   -0.9636 H       1  UNL1        0.0466
     46 H          -0.9477   -1.7199    0.1271 H       1  UNL1        0.0466
     47 H           1.2237    0.1606    0.3507 H       1  UNL1        0.0629
     48 H           3.3484   -1.7316    2.5007 H       1  UNL1        0.0377
     49 H           2.7645   -0.1069    2.2460 H       1  UNL1        0.0377
     50 H           7.6233   -1.7501    1.2971 H       1  UNL1        0.1921
     51 H           7.4810    2.5594   -0.2040 H       1  UNL1        0.0625
     52 H           5.7733    4.2521   -0.4392 H       1  UNL1        0.0618
     53 H           3.5231    3.6633    0.2201 H       1  UNL1        0.0618
     54 H           2.9774    1.4991    1.0794 H       1  UNL1        0.0624
     55 H           3.7776   -3.1115    0.4402 H       1  UNL1        0.0621
     56 H           2.7373   -3.9475   -1.5311 H       1  UNL1        0.0646
     57 H          -3.0942   -0.4661   -2.8212 H       1  UNL1        0.0501
     58 H          -1.8988    0.8286   -2.8914 H       1  UNL1        0.0501
     59 H          -2.7437    1.2412   -0.4348 H       1  UNL1        0.0709
     60 H          -3.5620    1.9379   -1.7990 H       1  UNL1        0.0709
@<TRIPOS>UNITY_ATOM_ATTR
6 1
charge 1
@<TRIPOS>BOND
     1     1     2    1
     2     2     3    2
     3     2     6    1
     4     3     4    1
     5     3     5    1
     6     4     5    1
     7     6     7    1
     8     6    33    1
     9     7     8    1
    10     8     9    1
    11     9    10    1
    12    10    11   am
    13    10    32    1
    14    11    12    2
    15    11    13    1
    16    13    14   ar
    17    13    30   ar
    18    14    15   ar
    19    15    16    1
    20    15    28   ar
    21    16    17    1
    22    17    18   ar
    23    17    27   ar
    24    18    19   ar
    25    19    20   ar
    26    20    21    2
    27    20    22   ar
    28    22    23   ar
    29    22    27   ar
    30    23    24   ar
    31    24    25   ar
    32    25    26   ar
    33    26    27   ar
    34    28    29   ar
    35    29    30   ar
    36    30    31    1
    37    32    33    1
    38     1    34    1
    39     1    35    1
    40     4    36    1
    41     4    37    1
    42     5    38    1
    43     5    39    1
    44     6    40    1
    45     7    41    1
    46     7    42    1
    47     8    43    1
    48     8    44    1
    49     9    45    1
    50     9    46    1
    51    14    47    1
    52    16    48    1
    53    16    49    1
    54    19    50    1
    55    23    51    1
    56    24    52    1
    57    25    53    1
    58    26    54    1
    59    28    55    1
    60    29    56    1
    61    32    57    1
    62    32    58    1
    63    33    59    1
    64    33    60    1
@<TRIPOS>MOLECULE
../data/bude_mols_rdkit_confs_charged/molecule_92.pdb
 60 64 0 0 0
SMALL
GASTEIGER

@<TRIPOS>ATOM
      1  N1        -6.2330    0.9720   -1.1890 N.pl3   1  UNL1       -0.2541
      2  C1        -5.5120   -0.1080   -0.6170 C.2     1  UNL1        0.2207
      3  C2        -5.9460   -1.3460   -0.7530 C.2     1  UNL1        0.0118
      4  C3        -6.9600   -2.2770   -1.2890 C.3     1  UNL1       -0.0203
      5  C4        -5.8650   -2.8240   -0.5400 C.3     1  UNL1       -0.0203
      6  N2        -4.3200    0.1970    0.0970 N.pl3   1  UNL1       -0.3473
      7  C5        -4.5380    1.4230    0.8190 C.3     1  UNL1        0.0485
      8  C6        -3.5920    1.6610    1.9460 C.3     1  UNL1       -0.0039
      9  C7        -2.5570    0.5800    2.1270 C.3     1  UNL1        0.0184
     10  N3        -1.6700    0.5250    0.9900 N.am    1  UNL1       -0.2939
     11  C8        -0.3580    1.0610    1.1590 C.2     1  UNL1        0.2495
     12  O1        -0.0680    1.5430    2.2800 O.2     1  UNL1       -0.2699
     13  C9         0.6180    1.0560    0.0770 C.ar    1  UNL1        0.0723
     14  C10        1.4690    0.0040   -0.0910 C.ar    1  UNL1       -0.0433
     15  C11        2.4260   -0.0600   -1.1210 C.ar    1  UNL1       -0.0406
     16  C12        3.3030   -1.2430   -1.2590 C.3     1  UNL1        0.0171
     17  C13        4.4030   -1.3100   -0.2870 C.ar    1  UNL1        0.0736
     18  N4         4.1790   -2.0390    0.8490 N.ar    1  UNL1       -0.1750
     19  N5         5.0660   -2.1310    1.8100 N.ar    1  UNL1       -0.2425
     20  C14        6.2550   -1.5270    1.7610 C.ar    1  UNL1        0.2725
     21  O2         7.0920   -1.6140    2.6690 O.2     1  UNL1       -0.2658
     22  C15        6.5510   -0.7760    0.6480 C.ar    1  UNL1        0.0496
     23  C16        7.7680   -0.1400    0.5300 C.ar    1  UNL1       -0.0487
     24  C17        8.0650    0.5980   -0.6010 C.ar    1  UNL1       -0.0610
     25  C18        7.1400    0.6980   -1.6150 C.ar    1  UNL1       -0.0611
     26  C19        5.9180    0.0510   -1.4800 C.ar    1  UNL1       -0.0521
     27  C20        5.6090   -0.6890   -0.3550 C.ar    1  UNL1        0.0106
     28  C21        2.4770    0.9980   -1.9740 C.ar    1  UNL1       -0.0555
     29  C22        1.6060    2.0890   -1.8120 C.ar    1  UNL1       -0.0254
     30  C23        0.6780    2.1150   -0.7860 C.ar    1  UNL1        0.1355
     31  F1        -0.1410    3.1930   -0.6740 F       1  UNL1       -0.2047
     32  C24       -1.9150   -0.0080   -0.3360 C.3     1  UNL1        0.0480
     33  C25       -3.2630    0.3180   -0.8870 C.3     1  UNL1        0.0631
     34 H          -7.0626    0.7994   -1.6903 H       1  UNL1        0.2880
     35 H          -5.9037    1.8939   -1.0846 H       1  UNL1        0.2880
     36 H          -7.0184   -2.4474   -2.3437 H       1  UNL1        0.0316
     37 H          -8.0250   -2.3456   -1.2119 H       1  UNL1        0.0316
     38 H          -6.0361   -3.2330    0.4338 H       1  UNL1        0.0316
     39 H          -5.1238   -3.5729   -0.7264 H       1  UNL1        0.0316
     40 H          -3.9757    0.3842   -0.8061 H       1  UNL1        0.2495
     41 H          -5.5312    1.4031    1.2166 H       1  UNL1        0.0693
     42 H          -4.3792    2.2170    0.1195 H       1  UNL1        0.0693
     43 H          -4.1598    1.7358    2.8498 H       1  UNL1        0.0316
     44 H          -3.0590    2.5593    1.7137 H       1  UNL1        0.0316
     45 H          -3.0501   -0.3636    2.2333 H       1  UNL1        0.0466
     46 H          -1.9808    0.7995    3.0015 H       1  UNL1        0.0466
     47 H           1.4083   -0.7855    0.5708 H       1  UNL1        0.0629
     48 H           3.7269   -1.2306   -2.2414 H       1  UNL1        0.0377
     49 H           2.6867   -2.0984   -1.0766 H       1  UNL1        0.0377
     50 H           4.8450   -2.6700    2.6036 H       1  UNL1        0.1921
     51 H           8.4618   -0.2150    1.2903 H       1  UNL1        0.0625
     52 H           8.9777    1.0724   -0.6845 H       1  UNL1        0.0618
     53 H           7.3511    1.2459   -2.4637 H       1  UNL1        0.0618
     54 H           5.2233    0.1251   -2.2395 H       1  UNL1        0.0624
     55 H           3.1610    0.9997   -2.7467 H       1  UNL1        0.0621
     56 H           1.6594    2.8833   -2.4687 H       1  UNL1        0.0646
     57 H          -1.8188   -1.0728   -0.2927 H       1  UNL1        0.0501
     58 H          -1.1984    0.4469   -0.9874 H       1  UNL1        0.0501
     59 H          -3.2488    1.3243   -1.2505 H       1  UNL1        0.0709
     60 H          -3.4691   -0.3849   -1.6670 H       1  UNL1        0.0709
@<TRIPOS>UNITY_ATOM_ATTR
6 1
charge 1
@<TRIPOS>BOND
     1     1     2    1
     2     2     3    2
     3     2     6    1
     4     3     4    1
     5     3     5    1
     6     4     5    1
     7     6     7    1
     8     6    33    1
     9     7     8    1
    10     8     9    1
    11     9    10    1
    12    10    11   am
    13    10    32    1
    14    11    12    2
    15    11    13    1
    16    13    14   ar
    17    13    30   ar
    18    14    15   ar
    19    15    16    1
    20    15    28   ar
    21    16    17    1
    22    17    18   ar
    23    17    27   ar
    24    18    19   ar
    25    19    20   ar
    26    20    21    2
    27    20    22   ar
    28    22    23   ar
    29    22    27   ar
    30    23    24   ar
    31    24    25   ar
    32    25    26   ar
    33    26    27   ar
    34    28    29   ar
    35    29    30   ar
    36    30    31    1
    37    32    33    1
    38     1    34    1
    39     1    35    1
    40     4    36    1
    41     4    37    1
    42     5    38    1
    43     5    39    1
    44     6    40    1
    45     7    41    1
    46     7    42    1
    47     8    43    1
    48     8    44    1
    49     9    45    1
    50     9    46    1
    51    14    47    1
    52    16    48    1
    53    16    49    1
    54    19    50    1
    55    23    51    1
    56    24    52    1
    57    25    53    1
    58    26    54    1
    59    28    55    1
    60    29    56    1
    61    32    57    1
    62    32    58    1
    63    33    59    1
    64    33    60    1
@<TRIPOS>MOLECULE
../data/bude_mols_rdkit_confs_charged/molecule_92.pdb
 60 64 0 0 0
SMALL
GASTEIGER

@<TRIPOS>ATOM
      1  N1        -6.8850   -1.8260    0.6300 N.pl3   1  UNL1       -0.2541
      2  C1        -6.1120   -0.6760    0.5600 C.2     1  UNL1        0.2207
      3  C2        -6.6400    0.5710    0.6790 C.2     1  UNL1        0.0118
      4  C3        -7.2070    1.9070    0.8070 C.3     1  UNL1       -0.0203
      5  C4        -8.1930    0.9080    0.9660 C.3     1  UNL1       -0.0203
      6  N2        -4.7170   -0.7420    0.3520 N.pl3   1  UNL1       -0.3473
      7  C5        -4.2780   -0.1390   -0.8750 C.3     1  UNL1        0.0485
      8  C6        -3.0920   -0.9230   -1.3820 C.3     1  UNL1       -0.0039
      9  C7        -1.7790   -0.4560   -0.8440 C.3     1  UNL1        0.0184
     10  N3        -1.6700   -0.4740    0.5790 N.am    1  UNL1       -0.2939
     11  C8        -0.4000   -0.0720    1.1010 C.2     1  UNL1        0.2495
     12  O1        -0.2780   -0.0370    2.3440 O.2     1  UNL1       -0.2699
     13  C9         0.7570    0.2970    0.3090 C.ar    1  UNL1        0.0723
     14  C10        1.7340   -0.6520    0.0080 C.ar    1  UNL1       -0.0433
     15  C11        2.8570   -0.3650   -0.7100 C.ar    1  UNL1       -0.0406
     16  C12        3.9270   -1.3450   -1.0040 C.3     1  UNL1        0.0171
     17  C13        5.2220   -0.6510   -1.0980 C.ar    1  UNL1        0.0736
     18  N4         5.7500   -0.5130   -2.3470 N.ar    1  UNL1       -0.1750
     19  N5         6.8930    0.0630   -2.6220 N.ar    1  UNL1       -0.2425
     20  C14        7.6480    0.5770   -1.6390 C.ar    1  UNL1        0.2725
     21  O2         8.7370    1.1350   -1.8670 O.2     1  UNL1       -0.2658
     22  C15        7.1660    0.4700   -0.3410 C.ar    1  UNL1        0.0496
     23  C16        7.8970    0.9870    0.7020 C.ar    1  UNL1       -0.0487
     24  C17        7.4070    0.8810    1.9850 C.ar    1  UNL1       -0.0610
     25  C18        6.1960    0.2630    2.2390 C.ar    1  UNL1       -0.0611
     26  C19        5.4430   -0.2630    1.2080 C.ar    1  UNL1       -0.0521
     27  C20        5.9530   -0.1450   -0.0670 C.ar    1  UNL1        0.0106
     28  C21        3.0630    0.9240   -1.1770 C.ar    1  UNL1       -0.0555
     29  C22        2.1010    1.8640   -0.8830 C.ar    1  UNL1       -0.0254
     30  C23        0.9680    1.5730   -0.1570 C.ar    1  UNL1        0.1355
     31  F1         0.0420    2.5420    0.1170 F       1  UNL1       -0.2047
     32  C24       -2.6310   -0.8700    1.5800 C.3     1  UNL1        0.0480
     33  C25       -3.9540   -0.2120    1.4970 C.3     1  UNL1        0.0631
     34 H          -7.8563   -1.7581    0.7757 H       1  UNL1        0.2880
     35 H          -6.4622   -2.7099    0.5340 H       1  UNL1        0.2880
     36 H          -7.2469    2.5303   -0.0618 H       1  UNL1        0.0316
     37 H          -6.9328    2.7321    1.4306 H       1  UNL1        0.0316
     38 H          -8.6212    0.7163    1.9276 H       1  UNL1        0.0316
     39 H          -9.1323    0.6698    0.5122 H       1  UNL1        0.0316
     40 H          -3.9200   -1.0376   -0.1446 H       1  UNL1        0.2495
     41 H          -3.9930    0.8771   -0.6986 H       1  UNL1        0.0693
     42 H          -5.0671   -0.1499   -1.5976 H       1  UNL1        0.0693
     43 H          -3.0664   -0.8420   -2.4486 H       1  UNL1        0.0316
     44 H          -3.2221   -1.9312   -1.0479 H       1  UNL1        0.0316
     45 H          -1.6225    0.5490   -1.1763 H       1  UNL1        0.0466
     46 H          -1.0445   -1.1431   -1.2091 H       1  UNL1        0.0466
     47 H           1.6003   -1.6182    0.3451 H       1  UNL1        0.0629
     48 H           3.7168   -1.8335   -1.9325 H       1  UNL1        0.0377
     49 H           3.9694   -2.0703   -0.2185 H       1  UNL1        0.0377
     50 H           7.2004    0.1194   -3.5556 H       1  UNL1        0.1921
     51 H           8.8027    1.4493    0.5258 H       1  UNL1        0.0625
     52 H           7.9528    1.2693    2.7701 H       1  UNL1        0.0618
     53 H           5.8515    0.1943    3.2094 H       1  UNL1        0.0618
     54 H           4.5371   -0.7247    1.3846 H       1  UNL1        0.0624
     55 H           3.9037    1.1691   -1.7231 H       1  UNL1        0.0621
     56 H           2.2351    2.8295   -1.2218 H       1  UNL1        0.0646
     57 H          -2.2143   -0.6499    2.5407 H       1  UNL1        0.0501
     58 H          -2.8127   -1.9112    1.4133 H       1  UNL1        0.0501
     59 H          -4.4977   -0.3970    2.3998 H       1  UNL1        0.0709
     60 H          -3.8122    0.8402    1.3642 H       1  UNL1        0.0709
@<TRIPOS>UNITY_ATOM_ATTR
6 1
charge 1
@<TRIPOS>BOND
     1     1     2    1
     2     2     3    2
     3     2     6    1
     4     3     4    1
     5     3     5    1
     6     4     5    1
     7     6     7    1
     8     6    33    1
     9     7     8    1
    10     8     9    1
    11     9    10    1
    12    10    11   am
    13    10    32    1
    14    11    12    2
    15    11    13    1
    16    13    14   ar
    17    13    30   ar
    18    14    15   ar
    19    15    16    1
    20    15    28   ar
    21    16    17    1
    22    17    18   ar
    23    17    27   ar
    24    18    19   ar
    25    19    20   ar
    26    20    21    2
    27    20    22   ar
    28    22    23   ar
    29    22    27   ar
    30    23    24   ar
    31    24    25   ar
    32    25    26   ar
    33    26    27   ar
    34    28    29   ar
    35    29    30   ar
    36    30    31    1
    37    32    33    1
    38     1    34    1
    39     1    35    1
    40     4    36    1
    41     4    37    1
    42     5    38    1
    43     5    39    1
    44     6    40    1
    45     7    41    1
    46     7    42    1
    47     8    43    1
    48     8    44    1
    49     9    45    1
    50     9    46    1
    51    14    47    1
    52    16    48    1
    53    16    49    1
    54    19    50    1
    55    23    51    1
    56    24    52    1
    57    25    53    1
    58    26    54    1
    59    28    55    1
    60    29    56    1
    61    32    57    1
    62    32    58    1
    63    33    59    1
    64    33    60    1
@<TRIPOS>MOLECULE
../data/bude_mols_rdkit_confs_charged/molecule_92.pdb
 60 64 0 0 0
SMALL
GASTEIGER

@<TRIPOS>ATOM
      1  N1         5.1590   -0.4920    2.4230 N.pl3   1  UNL1       -0.2541
      2  C1         4.7720    0.2070    1.2550 C.2     1  UNL1        0.2207
      3  C2         5.2090    1.4320    1.0450 C.2     1  UNL1        0.0118
      4  C3         6.0170    2.5790    1.5040 C.3     1  UNL1       -0.0203
      5  C4         5.2700    2.6730    0.1990 C.3     1  UNL1       -0.0203
      6  N2         3.9260   -0.4050    0.3130 N.pl3   1  UNL1       -0.3473
      7  C5         4.6620   -0.5610   -0.9210 C.3     1  UNL1        0.0485
      8  C6         4.3920   -1.9430   -1.5150 C.3     1  UNL1       -0.0039
      9  C7         3.0870   -1.9960   -2.2310 C.3     1  UNL1        0.0184
     10  N3         1.9910   -1.3850   -1.5060 N.am    1  UNL1       -0.2939
     11  C8         0.9090   -2.2680   -1.2500 C.2     1  UNL1        0.2495
     12  O1         0.9950   -3.4600   -1.6590 O.2     1  UNL1       -0.2699
     13  C9        -0.2930   -1.8520   -0.5350 C.ar    1  UNL1        0.0723
     14  C10       -1.3480   -1.3400   -1.2430 C.ar    1  UNL1       -0.0433
     15  C11       -2.5430   -0.9290   -0.6250 C.ar    1  UNL1       -0.0406
     16  C12       -3.6230   -0.3630   -1.4280 C.3     1  UNL1        0.0171
     17  C13       -4.3330    0.8010   -0.8720 C.ar    1  UNL1        0.0736
     18  N4        -3.9270    2.0660   -1.1180 N.ar    1  UNL1       -0.1750
     19  N5        -4.4900    3.1380   -0.6160 N.ar    1  UNL1       -0.2425
     20  C14       -5.5350    3.0340    0.1970 C.ar    1  UNL1        0.2725
     21  O2        -6.1120    4.0450    0.7070 O.2     1  UNL1       -0.2658
     22  C15       -6.0440    1.7970    0.5250 C.ar    1  UNL1        0.0496
     23  C16       -7.1420    1.7070    1.3480 C.ar    1  UNL1       -0.0487
     24  C17       -7.6580    0.4700    1.6460 C.ar    1  UNL1       -0.0610
     25  C18       -7.0460   -0.6570    1.1000 C.ar    1  UNL1       -0.0611
     26  C19       -5.9580   -0.5340    0.2870 C.ar    1  UNL1       -0.0521
     27  C20       -5.4200    0.6810   -0.0290 C.ar    1  UNL1        0.0106
     28  C21       -2.6000   -1.0670    0.7250 C.ar    1  UNL1       -0.0555
     29  C22       -1.5280   -1.5910    1.4740 C.ar    1  UNL1       -0.0254
     30  C23       -0.3680   -1.9840    0.8270 C.ar    1  UNL1        0.1355
     31  F1         0.6720   -2.4890    1.5380 F       1  UNL1       -0.2047
     32  C24        1.9030   -0.0210   -1.0490 C.3     1  UNL1        0.0480
     33  C25        2.6990    0.3010    0.1630 C.3     1  UNL1        0.0631
     34 H           5.7514   -0.0613    3.0809 H       1  UNL1        0.2880
     35 H           4.8359   -1.4090    2.5777 H       1  UNL1        0.2880
     36 H           7.0850    2.5134    1.5040 H       1  UNL1        0.0316
     37 H           6.0512    3.1676    2.3969 H       1  UNL1        0.0316
     38 H           4.4137    3.3089    0.1134 H       1  UNL1        0.0316
     39 H           5.5294    2.8938   -0.8153 H       1  UNL1        0.0316
     40 H           3.3088   -0.7028   -0.3939 H       1  UNL1        0.2495
     41 H           5.7088   -0.4569   -0.7256 H       1  UNL1        0.0693
     42 H           4.3481    0.1893   -1.6163 H       1  UNL1        0.0693
     43 H           4.3817   -2.6633   -0.7238 H       1  UNL1        0.0316
     44 H           5.1663   -2.1565   -2.2219 H       1  UNL1        0.0316
     45 H           2.8422   -3.0224   -2.4085 H       1  UNL1        0.0466
     46 H           3.2080   -1.4385   -3.1362 H       1  UNL1        0.0466
     47 H          -1.2630   -1.2525   -2.2678 H       1  UNL1        0.0629
     48 H          -4.3458   -1.1358   -1.5867 H       1  UNL1        0.0377
     49 H          -3.1474    0.0005   -2.3149 H       1  UNL1        0.0377
     50 H          -4.1352    4.0277   -0.8435 H       1  UNL1        0.1921
     51 H          -7.5734    2.5598    1.7374 H       1  UNL1        0.0625
     52 H          -8.4814    0.3767    2.2611 H       1  UNL1        0.0618
     53 H          -7.4203   -1.5948    1.3133 H       1  UNL1        0.0618
     54 H          -5.5270   -1.3871   -0.1023 H       1  UNL1        0.0624
     55 H          -3.4585   -0.7779    1.2193 H       1  UNL1        0.0621
     56 H          -1.6065   -1.6815    2.4990 H       1  UNL1        0.0646
     57 H           0.8760    0.1888   -0.8340 H       1  UNL1        0.0501
     58 H           2.3109    0.5788   -1.8357 H       1  UNL1        0.0501
     59 H           2.9246    1.3466    0.1375 H       1  UNL1        0.0709
     60 H           2.0926    0.0023    0.9925 H       1  UNL1        0.0709
@<TRIPOS>UNITY_ATOM_ATTR
6 1
charge 1
@<TRIPOS>BOND
     1     1     2    1
     2     2     3    2
     3     2     6    1
     4     3     4    1
     5     3     5    1
     6     4     5    1
     7     6     7    1
     8     6    33    1
     9     7     8    1
    10     8     9    1
    11     9    10    1
    12    10    11   am
    13    10    32    1
    14    11    12    2
    15    11    13    1
    16    13    14   ar
    17    13    30   ar
    18    14    15   ar
    19    15    16    1
    20    15    28   ar
    21    16    17    1
    22    17    18   ar
    23    17    27   ar
    24    18    19   ar
    25    19    20   ar
    26    20    21    2
    27    20    22   ar
    28    22    23   ar
    29    22    27   ar
    30    23    24   ar
    31    24    25   ar
    32    25    26   ar
    33    26    27   ar
    34    28    29   ar
    35    29    30   ar
    36    30    31    1
    37    32    33    1
    38     1    34    1
    39     1    35    1
    40     4    36    1
    41     4    37    1
    42     5    38    1
    43     5    39    1
    44     6    40    1
    45     7    41    1
    46     7    42    1
    47     8    43    1
    48     8    44    1
    49     9    45    1
    50     9    46    1
    51    14    47    1
    52    16    48    1
    53    16    49    1
    54    19    50    1
    55    23    51    1
    56    24    52    1
    57    25    53    1
    58    26    54    1
    59    28    55    1
    60    29    56    1
    61    32    57    1
    62    32    58    1
    63    33    59    1
    64    33    60    1
@<TRIPOS>MOLECULE
../data/bude_mols_rdkit_confs_charged/molecule_92.pdb
 60 64 0 0 0
SMALL
GASTEIGER

@<TRIPOS>ATOM
      1  N1         4.2590   -1.8500    1.6060 N.pl3   1  UNL1       -0.2541
      2  C1         4.7690   -0.7850    0.8410 C.2     1  UNL1        0.2207
      3  C2         6.0270   -0.4290    0.9830 C.2     1  UNL1        0.0118
      4  C3         7.1980    0.4530    0.6220 C.3     1  UNL1       -0.0203
      5  C4         7.3720   -0.6180    1.6510 C.3     1  UNL1       -0.0203
      6  N2         3.9400   -0.1080   -0.0590 N.pl3   1  UNL1       -0.3473
      7  C5         4.6360    0.3960   -1.2200 C.3     1  UNL1        0.0485
      8  C6         3.6870    0.4920   -2.3630 C.3     1  UNL1       -0.0039
      9  C7         2.4480    1.2820   -2.1260 C.3     1  UNL1        0.0184
     10  N3         1.6260    0.7970   -1.0620 N.am    1  UNL1       -0.2939
     11  C8         0.4400    0.1370   -1.4690 C.2     1  UNL1        0.2495
     12  O1         0.2000    0.0300   -2.6930 O.2     1  UNL1       -0.2699
     13  C9        -0.4920   -0.4140   -0.4840 C.ar    1  UNL1        0.0723
     14  C10       -1.5310    0.3060    0.0420 C.ar    1  UNL1       -0.0433
     15  C11       -2.4270   -0.2250    0.9870 C.ar    1  UNL1       -0.0406
     16  C12       -3.4810    0.6480    1.4940 C.3     1  UNL1        0.0171
     17  C13       -4.5590    0.9700    0.5430 C.ar    1  UNL1        0.0736
     18  N4        -4.4780    2.1260   -0.1670 N.ar    1  UNL1       -0.1750
     19  N5        -5.3830    2.4470   -1.0630 N.ar    1  UNL1       -0.2425
     20  C14       -6.4400    1.6760   -1.3430 C.ar    1  UNL1        0.2725
     21  O2        -7.2880    2.0180   -2.2110 O.2     1  UNL1       -0.2658
     22  C15       -6.5790    0.4870   -0.6530 C.ar    1  UNL1        0.0496
     23  C16       -7.6560   -0.3230   -0.9010 C.ar    1  UNL1       -0.0487
     24  C17       -7.7710   -1.4950   -0.1800 C.ar    1  UNL1       -0.0610
     25  C18       -6.8390   -1.8580    0.7680 C.ar    1  UNL1       -0.0611
     26  C19       -5.7470   -1.0380    1.0190 C.ar    1  UNL1       -0.0521
     27  C20       -5.6190    0.1400    0.3020 C.ar    1  UNL1        0.0106
     28  C21       -2.2220   -1.5080    1.3720 C.ar    1  UNL1       -0.0555
     29  C22       -1.1740   -2.2870    0.8650 C.ar    1  UNL1       -0.0254
     30  C23       -0.3380   -1.7110   -0.0520 C.ar    1  UNL1        0.1355
     31  F1         0.6950   -2.4410   -0.5700 F       1  UNL1       -0.2047
     32  C24        1.8120    0.8710    0.3830 C.3     1  UNL1        0.0480
     33  C25        3.3130    1.0480    0.5930 C.3     1  UNL1        0.0631
     34 H           4.8439   -2.3256    2.2392 H       1  UNL1        0.2880
     35 H           3.3172   -2.1196    1.5081 H       1  UNL1        0.2880
     36 H           7.2021    1.4817    0.9164 H       1  UNL1        0.0316
     37 H           7.6951    0.7101   -0.2899 H       1  UNL1        0.0316
     38 H           7.9625   -1.4821    1.4284 H       1  UNL1        0.0316
     39 H           7.7152   -0.6434    2.6641 H       1  UNL1        0.0316
     40 H           4.2793   -0.3431    0.8348 H       1  UNL1        0.2495
     41 H           5.4346   -0.2693   -1.4741 H       1  UNL1        0.0693
     42 H           5.0349    1.3652   -1.0045 H       1  UNL1        0.0693
     43 H           3.3940   -0.5024   -2.6280 H       1  UNL1        0.0316
     44 H           4.2170    1.0156   -3.1310 H       1  UNL1        0.0316
     45 H           1.8690    1.2722   -3.0258 H       1  UNL1        0.0466
     46 H           2.7647    2.2634   -1.8406 H       1  UNL1        0.0466
     47 H          -1.6624    1.2813   -0.2687 H       1  UNL1        0.0629
     48 H          -3.0271    1.5675    1.7995 H       1  UNL1        0.0377
     49 H          -3.9480    0.1076    2.2908 H       1  UNL1        0.0377
     50 H          -5.2787    3.2952   -1.5518 H       1  UNL1        0.1921
     51 H          -8.3622   -0.0641   -1.6076 H       1  UNL1        0.0625
     52 H          -8.5765   -2.1157   -0.3558 H       1  UNL1        0.0618
     53 H          -6.9528   -2.7399    1.2917 H       1  UNL1        0.0618
     54 H          -5.0437   -1.3014    1.7268 H       1  UNL1        0.0624
     55 H          -2.8620   -1.9269    2.0648 H       1  UNL1        0.0621
     56 H          -1.0372   -3.2625    1.1728 H       1  UNL1        0.0646
     57 H           1.4728   -0.0299    0.8502 H       1  UNL1        0.0501
     58 H           1.2535    1.6754    0.8142 H       1  UNL1        0.0501
     59 H           3.6486    1.9587    0.1426 H       1  UNL1        0.0709
     60 H           3.5645    1.1023    1.6316 H       1  UNL1        0.0709
@<TRIPOS>UNITY_ATOM_ATTR
6 1
charge 1
@<TRIPOS>BOND
     1     1     2    1
     2     2     3    2
     3     2     6    1
     4     3     4    1
     5     3     5    1
     6     4     5    1
     7     6     7    1
     8     6    33    1
     9     7     8    1
    10     8     9    1
    11     9    10    1
    12    10    11   am
    13    10    32    1
    14    11    12    2
    15    11    13    1
    16    13    14   ar
    17    13    30   ar
    18    14    15   ar
    19    15    16    1
    20    15    28   ar
    21    16    17    1
    22    17    18   ar
    23    17    27   ar
    24    18    19   ar
    25    19    20   ar
    26    20    21    2
    27    20    22   ar
    28    22    23   ar
    29    22    27   ar
    30    23    24   ar
    31    24    25   ar
    32    25    26   ar
    33    26    27   ar
    34    28    29   ar
    35    29    30   ar
    36    30    31    1
    37    32    33    1
    38     1    34    1
    39     1    35    1
    40     4    36    1
    41     4    37    1
    42     5    38    1
    43     5    39    1
    44     6    40    1
    45     7    41    1
    46     7    42    1
    47     8    43    1
    48     8    44    1
    49     9    45    1
    50     9    46    1
    51    14    47    1
    52    16    48    1
    53    16    49    1
    54    19    50    1
    55    23    51    1
    56    24    52    1
    57    25    53    1
    58    26    54    1
    59    28    55    1
    60    29    56    1
    61    32    57    1
    62    32    58    1
    63    33    59    1
    64    33    60    1
