@<TRIPOS>MOLECULE
../data/bude_mols_rdkit_confs_charged/molecule_29.pdb
 42 44 0 0 0
SMALL
GASTEIGER

@<TRIPOS>ATOM
      1  O1        -1.0870   -0.7760   -1.1540 O.2     1  UNL1       -0.2699
      2  C1        -1.3530   -0.4860    0.0430 C.2     1  UNL1        0.2484
      3  N1        -2.5770    0.1650    0.3140 N.am    1  UNL1       -0.2786
      4  C2        -3.5610    0.5360   -0.6300 C.ar    1  UNL1        0.0756
      5  C3        -3.5320    0.3440   -1.9750 C.ar    1  UNL1       -0.0369
      6  C4        -4.5530    0.7420   -2.8460 C.ar    1  UNL1       -0.0598
      7  C5        -5.6680    1.3700   -2.3370 C.ar    1  UNL1       -0.0582
      8  C6        -5.7370    1.5830   -0.9810 C.ar    1  UNL1       -0.0183
      9  C7        -4.7110    1.1760   -0.1530 C.ar    1  UNL1        0.1380
     10  O2        -4.8050    1.4040    1.2240 O.3     1  UNL1       -0.5049
     11  C8        -0.3750   -0.8380    1.1020 C.ar    1  UNL1        0.0388
     12  C9        -0.6010   -0.6190    2.4350 C.ar    1  UNL1       -0.0495
     13  C10        0.3540   -0.9670    3.4030 C.ar    1  UNL1       -0.0593
     14  C11        1.5480   -1.5410    3.0310 C.ar    1  UNL1       -0.0382
     15  C12        1.7750   -1.7610    1.6940 C.ar    1  UNL1        0.0733
     16  S1         3.2700   -2.4840    1.1660 S.O2    1  UNL1       -0.0589
     17  O3         3.0430   -3.2710   -0.0930 O.2     1  UNL1       -0.1842
     18  O4         3.8190   -3.4150    2.2300 O.2     1  UNL1       -0.1842
     19  N2         4.3950   -1.2290    0.8260 N.pl3   1  UNL1       -0.5340
     20  C13        4.1700   -0.2630   -0.1620 C.ar    1  UNL1       -0.0868
     21  C14        4.5850   -0.5450   -1.4490 C.ar    1  UNL1       -0.0728
     22  C15        4.3510    0.3790   -2.4440 C.ar    1  UNL1       -0.0627
     23  C16        3.7140    1.5670   -2.1670 C.ar    1  UNL1       -0.0584
     24  C17        3.3060    1.8410   -0.8910 C.ar    1  UNL1       -0.0214
     25  C18        3.5410    0.9080    0.1230 C.ar    1  UNL1        0.1026
     26  O5         3.1220    1.2150    1.3960 O.3     1  UNL1       -0.5080
     27  C19        0.8350   -1.4180    0.7450 C.ar    1  UNL1       -0.0261
     28 H          -2.7634    0.3823    1.2560 H       1  UNL1        0.1552
     29 H          -2.7060   -0.1243   -2.3794 H       1  UNL1        0.0637
     30 H          -4.4710    0.5665   -3.8597 H       1  UNL1        0.0618
     31 H          -6.4335    1.6734   -2.9590 H       1  UNL1        0.0619
     32 H          -6.5637    2.0516   -0.5784 H       1  UNL1        0.0655
     33 H          -4.1123    1.1304    1.7925 H       1  UNL1        0.2922
     34 H          -1.4908   -0.1898    2.7335 H       1  UNL1        0.0625
     35 H           0.1592   -0.7911    4.4011 H       1  UNL1        0.0618
     36 H           2.2543   -1.7994    3.7377 H       1  UNL1        0.0636
     37 H           5.0631   -1.4344   -1.6621 H       1  UNL1        0.0607
     38 H           4.6572    0.1777   -3.4088 H       1  UNL1        0.0617
     39 H           3.5444    2.2504   -2.9215 H       1  UNL1        0.0619
     40 H           2.8279    2.7304   -0.6781 H       1  UNL1        0.0654
     41 H           3.2661    0.6086    2.0957 H       1  UNL1        0.2921
     42 H           1.0351   -1.5962   -0.2516 H       1  UNL1        0.0644
@<TRIPOS>UNITY_ATOM_ATTR
19 1
charge -1
@<TRIPOS>BOND
     1     1     2    2
     2     2     3   am
     3     2    11    1
     4     3     4    1
     5     4     5   ar
     6     4     9   ar
     7     5     6   ar
     8     6     7   ar
     9     7     8   ar
    10     8     9   ar
    11     9    10    1
    12    11    12   ar
    13    11    27   ar
    14    12    13   ar
    15    13    14   ar
    16    14    15   ar
    17    15    16    1
    18    15    27   ar
    19    16    17    2
    20    16    18    2
    21    16    19    1
    22    19    20    1
    23    20    21   ar
    24    20    25   ar
    25    21    22   ar
    26    22    23   ar
    27    23    24   ar
    28    24    25   ar
    29    25    26    1
    30     3    28    1
    31     5    29    1
    32     6    30    1
    33     7    31    1
    34     8    32    1
    35    10    33    1
    36    12    34    1
    37    13    35    1
    38    14    36    1
    39    21    37    1
    40    22    38    1
    41    23    39    1
    42    24    40    1
    43    26    41    1
    44    27    42    1
@<TRIPOS>MOLECULE
../data/bude_mols_rdkit_confs_charged/molecule_29.pdb
 42 44 0 0 0
SMALL
GASTEIGER

@<TRIPOS>ATOM
      1  O1         0.9100    1.1110   -0.1240 O.2     1  UNL1       -0.2699
      2  C1         1.3700    0.0200    0.2250 C.2     1  UNL1        0.2484
      3  N1         2.7240   -0.3310    0.0670 N.am    1  UNL1       -0.2786
      4  C2         3.6910    0.5350   -0.5130 C.ar    1  UNL1        0.0756
      5  C3         3.4240    1.7980   -0.9780 C.ar    1  UNL1       -0.0369
      6  C4         4.3920    2.6270   -1.5420 C.ar    1  UNL1       -0.0598
      7  C5         5.6780    2.1610   -1.6400 C.ar    1  UNL1       -0.0582
      8  C6         6.0020    0.9060   -1.1910 C.ar    1  UNL1       -0.0183
      9  C7         5.0180    0.1020   -0.6340 C.ar    1  UNL1        0.1380
     10  O2         5.3980   -1.1340   -0.2060 O.3     1  UNL1       -0.5049
     11  C8         0.4710   -0.9920    0.8480 C.ar    1  UNL1        0.0388
     12  C9         0.8030   -2.3160    0.9190 C.ar    1  UNL1       -0.0495
     13  C10       -0.0930   -3.2040    1.5270 C.ar    1  UNL1       -0.0593
     14  C11       -1.3020   -2.7640    2.0540 C.ar    1  UNL1       -0.0382
     15  C12       -1.6250   -1.4260    1.9760 C.ar    1  UNL1        0.0733
     16  S1        -3.1310   -0.8090    2.6180 S.O2    1  UNL1       -0.0589
     17  O3        -2.9790    0.5690    3.1870 O.2     1  UNL1       -0.1842
     18  O4        -3.5800   -1.7660    3.7120 O.2     1  UNL1       -0.1842
     19  N2        -4.3330   -0.8690    1.3890 N.pl3   1  UNL1       -0.5340
     20  C13       -4.1390   -0.1170    0.2100 C.ar    1  UNL1       -0.0868
     21  C14       -3.5000   -0.5960   -0.9100 C.ar    1  UNL1       -0.0728
     22  C15       -3.3210    0.1500   -2.0500 C.ar    1  UNL1       -0.0627
     23  C16       -3.8020    1.4600   -2.0970 C.ar    1  UNL1       -0.0584
     24  C17       -4.4470    1.9640   -0.9860 C.ar    1  UNL1       -0.0214
     25  C18       -4.6120    1.1940    0.1410 C.ar    1  UNL1        0.1026
     26  O5        -5.2660    1.7420    1.2320 O.3     1  UNL1       -0.5080
     27  C19       -0.7230   -0.5550    1.3680 C.ar    1  UNL1       -0.0261
     28 H           3.0158   -1.2200    0.3732 H       1  UNL1        0.1552
     29 H           2.4573    2.1521   -0.9065 H       1  UNL1        0.0637
     30 H           4.1463    3.5711   -1.8786 H       1  UNL1        0.0618
     31 H           6.4086    2.7599   -2.0553 H       1  UNL1        0.0619
     32 H           6.9720    0.5619   -1.2671 H       1  UNL1        0.0655
     33 H           4.7673   -1.7116    0.1769 H       1  UNL1        0.2922
     34 H           1.6975   -2.6550    0.5317 H       1  UNL1        0.0625
     35 H           0.1491   -4.2055    1.5851 H       1  UNL1        0.0618
     36 H          -1.9508   -3.4320    2.4989 H       1  UNL1        0.0636
     37 H          -3.1376   -1.5621   -0.8933 H       1  UNL1        0.0607
     38 H          -2.8347   -0.2549   -2.8653 H       1  UNL1        0.0617
     39 H          -3.6780    2.0379   -2.9430 H       1  UNL1        0.0619
     40 H          -4.8097    2.9300   -1.0013 H       1  UNL1        0.0654
     41 H          -5.3882    1.2330    2.0092 H       1  UNL1        0.2921
     42 H          -0.9589    0.4478    1.3066 H       1  UNL1        0.0644
@<TRIPOS>UNITY_ATOM_ATTR
19 1
charge -1
@<TRIPOS>BOND
     1     1     2    2
     2     2     3   am
     3     2    11    1
     4     3     4    1
     5     4     5   ar
     6     4     9   ar
     7     5     6   ar
     8     6     7   ar
     9     7     8   ar
    10     8     9   ar
    11     9    10    1
    12    11    12   ar
    13    11    27   ar
    14    12    13   ar
    15    13    14   ar
    16    14    15   ar
    17    15    16    1
    18    15    27   ar
    19    16    17    2
    20    16    18    2
    21    16    19    1
    22    19    20    1
    23    20    21   ar
    24    20    25   ar
    25    21    22   ar
    26    22    23   ar
    27    23    24   ar
    28    24    25   ar
    29    25    26    1
    30     3    28    1
    31     5    29    1
    32     6    30    1
    33     7    31    1
    34     8    32    1
    35    10    33    1
    36    12    34    1
    37    13    35    1
    38    14    36    1
    39    21    37    1
    40    22    38    1
    41    23    39    1
    42    24    40    1
    43    26    41    1
    44    27    42    1
@<TRIPOS>MOLECULE
../data/bude_mols_rdkit_confs_charged/molecule_29.pdb
 42 44 0 0 0
SMALL
GASTEIGER

@<TRIPOS>ATOM
      1  O1         2.5350    1.7130    0.5630 O.2     1  UNL1       -0.2699
      2  C1         2.2410    0.4920    0.5330 C.2     1  UNL1        0.2484
      3  N1         3.1350   -0.4480    0.0170 N.am    1  UNL1       -0.2786
      4  C2         4.4140   -0.1620   -0.5040 C.ar    1  UNL1        0.0756
      5  C3         4.9850    1.0840   -0.5920 C.ar    1  UNL1       -0.0369
      6  C4         6.2610    1.3050   -1.1210 C.ar    1  UNL1       -0.0598
      7  C5         7.0180    0.2630   -1.5870 C.ar    1  UNL1       -0.0582
      8  C6         6.4780   -0.9850   -1.5130 C.ar    1  UNL1       -0.0183
      9  C7         5.1940   -1.2090   -0.9800 C.ar    1  UNL1        0.1380
     10  O2         4.7580   -2.5080   -0.9580 O.3     1  UNL1       -0.5049
     11  C8         0.9080    0.1070    1.0670 C.ar    1  UNL1        0.0388
     12  C9         0.6780   -1.2010    1.3920 C.ar    1  UNL1       -0.0495
     13  C10       -0.5790   -1.5890    1.8940 C.ar    1  UNL1       -0.0593
     14  C11       -1.5610   -0.6360    2.0500 C.ar    1  UNL1       -0.0382
     15  C12       -1.3440    0.7030    1.7240 C.ar    1  UNL1        0.0733
     16  S1        -2.6210    1.8830    1.9370 S.O2    1  UNL1       -0.0589
     17  O3        -1.9530    3.2080    2.2300 O.2     1  UNL1       -0.1842
     18  O4        -3.4290    1.5450    3.1800 O.2     1  UNL1       -0.1842
     19  N2        -3.6030    2.0550    0.5580 N.pl3   1  UNL1       -0.5340
     20  C13       -4.3490    0.9460    0.0710 C.ar    1  UNL1       -0.0868
     21  C14       -3.8160    0.0790   -0.8600 C.ar    1  UNL1       -0.0728
     22  C15       -4.5330   -1.0150   -1.3500 C.ar    1  UNL1       -0.0627
     23  C16       -5.8180   -1.2440   -0.8950 C.ar    1  UNL1       -0.0584
     24  C17       -6.3430   -0.3710    0.0360 C.ar    1  UNL1       -0.0214
     25  C18       -5.6370    0.7100    0.5210 C.ar    1  UNL1        0.1026
     26  O5        -6.1690    1.5950    1.4650 O.3     1  UNL1       -0.5080
     27  C19       -0.0940    1.0250    1.2370 C.ar    1  UNL1       -0.0261
     28 H           2.8485   -1.3899    0.0168 H       1  UNL1        0.1552
     29 H           4.4469    1.8961   -0.2515 H       1  UNL1        0.0637
     30 H           6.6367    2.2653   -1.1606 H       1  UNL1        0.0618
     31 H           7.9602    0.4175   -1.9787 H       1  UNL1        0.0619
     32 H           7.0253   -1.7893   -1.8573 H       1  UNL1        0.0655
     33 H           3.9108   -2.7121   -0.6136 H       1  UNL1        0.2922
     34 H           1.4246   -1.9029    1.2696 H       1  UNL1        0.0625
     35 H          -0.7620   -2.5740    2.1417 H       1  UNL1        0.0618
     36 H          -2.4823   -0.9201    2.4180 H       1  UNL1        0.0636
     37 H          -2.8575    0.2437   -1.2053 H       1  UNL1        0.0607
     38 H          -4.1070   -1.6470   -2.0458 H       1  UNL1        0.0617
     39 H          -6.3690   -2.0448   -1.2416 H       1  UNL1        0.0619
     40 H          -7.3013   -0.5334    0.3829 H       1  UNL1        0.0654
     41 H          -5.6571    2.3181    1.7699 H       1  UNL1        0.2921
     42 H           0.0958    2.0084    0.9880 H       1  UNL1        0.0644
@<TRIPOS>UNITY_ATOM_ATTR
19 1
charge -1
@<TRIPOS>BOND
     1     1     2    2
     2     2     3   am
     3     2    11    1
     4     3     4    1
     5     4     5   ar
     6     4     9   ar
     7     5     6   ar
     8     6     7   ar
     9     7     8   ar
    10     8     9   ar
    11     9    10    1
    12    11    12   ar
    13    11    27   ar
    14    12    13   ar
    15    13    14   ar
    16    14    15   ar
    17    15    16    1
    18    15    27   ar
    19    16    17    2
    20    16    18    2
    21    16    19    1
    22    19    20    1
    23    20    21   ar
    24    20    25   ar
    25    21    22   ar
    26    22    23   ar
    27    23    24   ar
    28    24    25   ar
    29    25    26    1
    30     3    28    1
    31     5    29    1
    32     6    30    1
    33     7    31    1
    34     8    32    1
    35    10    33    1
    36    12    34    1
    37    13    35    1
    38    14    36    1
    39    21    37    1
    40    22    38    1
    41    23    39    1
    42    24    40    1
    43    26    41    1
    44    27    42    1
@<TRIPOS>MOLECULE
../data/bude_mols_rdkit_confs_charged/molecule_29.pdb
 42 44 0 0 0
SMALL
GASTEIGER

@<TRIPOS>ATOM
      1  O1        -1.5750   -0.9940    0.7390 O.2     1  UNL1       -0.2699
      2  C1        -1.5540   -0.2670   -0.2790 C.2     1  UNL1        0.2484
      3  N1        -2.4610    0.7830   -0.3740 N.am    1  UNL1       -0.2786
      4  C2        -3.4580    1.1750    0.5500 C.ar    1  UNL1        0.0756
      5  C3        -3.6930    0.5530    1.7350 C.ar    1  UNL1       -0.0369
      6  C4        -4.6970    0.9840    2.6210 C.ar    1  UNL1       -0.0598
      7  C5        -5.4800    2.0610    2.3050 C.ar    1  UNL1       -0.0582
      8  C6        -5.2640    2.7160    1.1020 C.ar    1  UNL1       -0.0183
      9  C7        -4.2840    2.2750    0.2660 C.ar    1  UNL1        0.1380
     10  O2        -4.0840    2.9470   -0.9370 O.3     1  UNL1       -0.5049
     11  C8        -0.5730   -0.5490   -1.3310 C.ar    1  UNL1        0.0388
     12  C9        -0.6140    0.0370   -2.5520 C.ar    1  UNL1       -0.0495
     13  C10        0.3380   -0.2520   -3.5250 C.ar    1  UNL1       -0.0593
     14  C11        1.3310   -1.1370   -3.2520 C.ar    1  UNL1       -0.0382
     15  C12        1.4200   -1.7620   -2.0260 C.ar    1  UNL1        0.0733
     16  S1         2.7240   -2.8890   -1.7420 S.O2    1  UNL1       -0.0589
     17  O3         2.3260   -4.0370   -0.8960 O.2     1  UNL1       -0.1842
     18  O4         3.1630   -3.4400   -3.0870 O.2     1  UNL1       -0.1842
     19  N2         4.0470   -2.0030   -1.1060 N.pl3   1  UNL1       -0.5340
     20  C13        4.0410   -1.2870    0.0920 C.ar    1  UNL1       -0.0868
     21  C14        4.4140   -1.9320    1.2520 C.ar    1  UNL1       -0.0728
     22  C15        4.4210   -1.2570    2.4560 C.ar    1  UNL1       -0.0627
     23  C16        4.0590    0.0660    2.5420 C.ar    1  UNL1       -0.0584
     24  C17        3.6860    0.7020    1.3620 C.ar    1  UNL1       -0.0214
     25  C18        3.6760    0.0380    0.1540 C.ar    1  UNL1        0.1026
     26  O5         3.2890    0.7520   -0.9710 O.3     1  UNL1       -0.5080
     27  C19        0.4620   -1.4540   -1.0840 C.ar    1  UNL1       -0.0261
     28 H          -2.4013    1.3257   -1.1932 H       1  UNL1        0.1552
     29 H          -3.1159   -0.2625    1.9935 H       1  UNL1        0.0637
     30 H          -4.8437    0.4860    3.5129 H       1  UNL1        0.0618
     31 H          -6.2187    2.3803    2.9511 H       1  UNL1        0.0619
     32 H          -5.8413    3.5311    0.8425 H       1  UNL1        0.0655
     33 H          -3.4153    2.6611   -1.5278 H       1  UNL1        0.2922
     34 H          -1.3661    0.7110   -2.7646 H       1  UNL1        0.0625
     35 H           0.2895    0.2040   -4.4495 H       1  UNL1        0.0618
     36 H           2.0343   -1.3464   -3.9777 H       1  UNL1        0.0636
     37 H           4.6898   -2.9260    1.2199 H       1  UNL1        0.0607
     38 H           4.7050   -1.7580    3.3124 H       1  UNL1        0.0617
     39 H           4.0636    0.5669    3.4443 H       1  UNL1        0.0619
     40 H           3.4099    1.6959    1.3919 H       1  UNL1        0.0654
     41 H           3.2705    0.3325   -1.8087 H       1  UNL1        0.2921
     42 H           0.5114   -1.9101   -0.1596 H       1  UNL1        0.0644
@<TRIPOS>UNITY_ATOM_ATTR
19 1
charge -1
@<TRIPOS>BOND
     1     1     2    2
     2     2     3   am
     3     2    11    1
     4     3     4    1
     5     4     5   ar
     6     4     9   ar
     7     5     6   ar
     8     6     7   ar
     9     7     8   ar
    10     8     9   ar
    11     9    10    1
    12    11    12   ar
    13    11    27   ar
    14    12    13   ar
    15    13    14   ar
    16    14    15   ar
    17    15    16    1
    18    15    27   ar
    19    16    17    2
    20    16    18    2
    21    16    19    1
    22    19    20    1
    23    20    21   ar
    24    20    25   ar
    25    21    22   ar
    26    22    23   ar
    27    23    24   ar
    28    24    25   ar
    29    25    26    1
    30     3    28    1
    31     5    29    1
    32     6    30    1
    33     7    31    1
    34     8    32    1
    35    10    33    1
    36    12    34    1
    37    13    35    1
    38    14    36    1
    39    21    37    1
    40    22    38    1
    41    23    39    1
    42    24    40    1
    43    26    41    1
    44    27    42    1
@<TRIPOS>MOLECULE
../data/bude_mols_rdkit_confs_charged/molecule_29.pdb
 42 44 0 0 0
SMALL
GASTEIGER

@<TRIPOS>ATOM
      1  O1        -2.1420    1.2240   -0.7810 O.2     1  UNL1       -0.2699
      2  C1        -2.0170    0.0870   -0.2700 C.2     1  UNL1        0.2484
      3  N1        -3.1280   -0.4940    0.3780 N.am    1  UNL1       -0.2786
      4  C2        -4.4220    0.0440    0.5460 C.ar    1  UNL1        0.0756
      5  C3        -4.7730    1.2650    0.0700 C.ar    1  UNL1       -0.0369
      6  C4        -6.0750    1.7380    0.2710 C.ar    1  UNL1       -0.0598
      7  C5        -6.9890    0.9630    0.9500 C.ar    1  UNL1       -0.0582
      8  C6        -6.6300   -0.2740    1.4310 C.ar    1  UNL1       -0.0183
      9  C7        -5.3340   -0.7650    1.2400 C.ar    1  UNL1        0.1380
     10  O2        -5.0800   -2.0040    1.7570 O.3     1  UNL1       -0.5049
     11  C8        -0.7080   -0.5960   -0.3720 C.ar    1  UNL1        0.0388
     12  C9        -0.3810   -1.7590    0.2320 C.ar    1  UNL1       -0.0495
     13  C10        0.8790   -2.3450    0.0840 C.ar    1  UNL1       -0.0593
     14  C11        1.8130   -1.7110   -0.7030 C.ar    1  UNL1       -0.0382
     15  C12        1.5260   -0.5140   -1.3450 C.ar    1  UNL1        0.0733
     16  S1         2.6950    0.3050   -2.3470 S.O2    1  UNL1       -0.0589
     17  O3         3.5550   -0.6970   -3.1020 O.2     1  UNL1       -0.1842
     18  O4         1.8910    1.1190   -3.3540 O.2     1  UNL1       -0.1842
     19  N2         3.6460    1.4060   -1.4640 N.pl3   1  UNL1       -0.5340
     20  C13        4.4970    1.0460   -0.3940 C.ar    1  UNL1       -0.0868
     21  C14        5.8070    0.6790   -0.6230 C.ar    1  UNL1       -0.0728
     22  C15        6.5940    0.3090    0.4600 C.ar    1  UNL1       -0.0627
     23  C16        6.1110    0.2980    1.7480 C.ar    1  UNL1       -0.0584
     24  C17        4.8070    0.6660    1.9700 C.ar    1  UNL1       -0.0214
     25  C18        3.9990    1.0420    0.8840 C.ar    1  UNL1        0.1026
     26  O5         2.6820    1.4190    1.0970 O.3     1  UNL1       -0.5080
     27  C19        0.2630    0.0060   -1.1550 C.ar    1  UNL1       -0.0261
     28 H          -2.9818   -1.3887    0.7618 H       1  UNL1        0.1552
     29 H          -4.0839    1.8418   -0.4374 H       1  UNL1        0.0637
     30 H          -6.3495    2.6655   -0.0888 H       1  UNL1        0.0618
     31 H          -7.9485    1.3127    1.0985 H       1  UNL1        0.0619
     32 H          -7.3235   -0.8460    1.9380 H       1  UNL1        0.0655
     33 H          -4.2300   -2.3864    1.6610 H       1  UNL1        0.2922
     34 H          -1.0845   -2.2302    0.8220 H       1  UNL1        0.0625
     35 H           1.1044   -3.2350    0.5553 H       1  UNL1        0.0618
     36 H           2.7470   -2.1345   -0.8185 H       1  UNL1        0.0636
     37 H           6.1943    0.6794   -1.5796 H       1  UNL1        0.0607
     38 H           7.5742    0.0330    0.2928 H       1  UNL1        0.0617
     39 H           6.7184    0.0179    2.5339 H       1  UNL1        0.0619
     40 H           4.4231    0.6664    2.9279 H       1  UNL1        0.0654
     41 H           2.1434    1.6697    0.3724 H       1  UNL1        0.2921
     42 H           0.0277    0.8950   -1.6233 H       1  UNL1        0.0644
@<TRIPOS>UNITY_ATOM_ATTR
19 1
charge -1
@<TRIPOS>BOND
     1     1     2    2
     2     2     3   am
     3     2    11    1
     4     3     4    1
     5     4     5   ar
     6     4     9   ar
     7     5     6   ar
     8     6     7   ar
     9     7     8   ar
    10     8     9   ar
    11     9    10    1
    12    11    12   ar
    13    11    27   ar
    14    12    13   ar
    15    13    14   ar
    16    14    15   ar
    17    15    16    1
    18    15    27   ar
    19    16    17    2
    20    16    18    2
    21    16    19    1
    22    19    20    1
    23    20    21   ar
    24    20    25   ar
    25    21    22   ar
    26    22    23   ar
    27    23    24   ar
    28    24    25   ar
    29    25    26    1
    30     3    28    1
    31     5    29    1
    32     6    30    1
    33     7    31    1
    34     8    32    1
    35    10    33    1
    36    12    34    1
    37    13    35    1
    38    14    36    1
    39    21    37    1
    40    22    38    1
    41    23    39    1
    42    24    40    1
    43    26    41    1
    44    27    42    1
@<TRIPOS>MOLECULE
../data/bude_mols_rdkit_confs_charged/molecule_29.pdb
 42 44 0 0 0
SMALL
GASTEIGER

@<TRIPOS>ATOM
      1  O1        -2.3100    2.4980   -0.2430 O.2     1  UNL1       -0.2699
      2  C1        -1.9860    1.3030   -0.3930 C.2     1  UNL1        0.2484
      3  N1        -2.9030    0.2820   -0.0830 N.am    1  UNL1       -0.2786
      4  C2        -4.2210    0.4560    0.4080 C.ar    1  UNL1        0.0756
      5  C3        -4.8270    1.6550    0.6630 C.ar    1  UNL1       -0.0369
      6  C4        -6.1330    1.7570    1.1480 C.ar    1  UNL1       -0.0598
      7  C5        -6.8850    0.6310    1.3950 C.ar    1  UNL1       -0.0582
      8  C6        -6.3040   -0.5840    1.1480 C.ar    1  UNL1       -0.0183
      9  C7        -4.9950   -0.6830    0.6630 C.ar    1  UNL1        0.1380
     10  O2        -4.4920   -1.9230    0.4440 O.3     1  UNL1       -0.5049
     11  C8        -0.6260    1.0360   -0.9000 C.ar    1  UNL1        0.0388
     12  C9         0.1060    2.0970   -1.4160 C.ar    1  UNL1       -0.0495
     13  C10        1.3810    1.9350   -1.9040 C.ar    1  UNL1       -0.0593
     14  C11        1.9690    0.6800   -1.8880 C.ar    1  UNL1       -0.0382
     15  C12        1.2350   -0.3640   -1.3750 C.ar    1  UNL1        0.0733
     16  S1         1.9170   -1.9840   -1.3220 S.O2    1  UNL1       -0.0589
     17  O3         0.8180   -3.0040   -1.3870 O.2     1  UNL1       -0.1842
     18  O4         2.8270   -2.2340   -2.4920 O.2     1  UNL1       -0.1842
     19  N2         2.7510   -2.2270    0.1760 N.pl3   1  UNL1       -0.5340
     20  C13        3.8570   -1.3880    0.4590 C.ar    1  UNL1       -0.0868
     21  C14        3.6440   -0.2140    1.1250 C.ar    1  UNL1       -0.0728
     22  C15        4.6830    0.6610    1.4380 C.ar    1  UNL1       -0.0627
     23  C16        5.9720    0.3370    1.0660 C.ar    1  UNL1       -0.0584
     24  C17        6.1960   -0.8390    0.3970 C.ar    1  UNL1       -0.0214
     25  C18        5.1470   -1.7000    0.0940 C.ar    1  UNL1        0.1026
     26  O5         5.3680   -2.8940   -0.5830 O.3     1  UNL1       -0.5080
     27  C19       -0.0510   -0.2110   -0.8800 C.ar    1  UNL1       -0.0261
     28 H          -2.5993   -0.6443   -0.2207 H       1  UNL1        0.1552
     29 H          -4.2961    2.5228    0.4895 H       1  UNL1        0.0637
     30 H          -6.5395    2.6892    1.3235 H       1  UNL1        0.0618
     31 H          -7.8505    0.6999    1.7529 H       1  UNL1        0.0619
     32 H          -6.8435   -1.4461    1.3234 H       1  UNL1        0.0655
     33 H          -3.6188   -2.0238    0.1195 H       1  UNL1        0.2922
     34 H          -0.3204    3.0366   -1.4338 H       1  UNL1        0.0625
     35 H           1.8982    2.7447   -2.2808 H       1  UNL1        0.0618
     36 H           2.9248    0.5339   -2.2486 H       1  UNL1        0.0636
     37 H           2.6821    0.0330    1.4056 H       1  UNL1        0.0607
     38 H           4.4906    1.5408    1.9420 H       1  UNL1        0.0617
     39 H           6.7559    0.9705    1.2880 H       1  UNL1        0.0619
     40 H           7.1567   -1.0885    0.1144 H       1  UNL1        0.0654
     41 H           4.6487   -3.4617   -0.7786 H       1  UNL1        0.2921
     42 H          -0.5676   -1.0208   -0.5027 H       1  UNL1        0.0644
@<TRIPOS>UNITY_ATOM_ATTR
19 1
charge -1
@<TRIPOS>BOND
     1     1     2    2
     2     2     3   am
     3     2    11    1
     4     3     4    1
     5     4     5   ar
     6     4     9   ar
     7     5     6   ar
     8     6     7   ar
     9     7     8   ar
    10     8     9   ar
    11     9    10    1
    12    11    12   ar
    13    11    27   ar
    14    12    13   ar
    15    13    14   ar
    16    14    15   ar
    17    15    16    1
    18    15    27   ar
    19    16    17    2
    20    16    18    2
    21    16    19    1
    22    19    20    1
    23    20    21   ar
    24    20    25   ar
    25    21    22   ar
    26    22    23   ar
    27    23    24   ar
    28    24    25   ar
    29    25    26    1
    30     3    28    1
    31     5    29    1
    32     6    30    1
    33     7    31    1
    34     8    32    1
    35    10    33    1
    36    12    34    1
    37    13    35    1
    38    14    36    1
    39    21    37    1
    40    22    38    1
    41    23    39    1
    42    24    40    1
    43    26    41    1
    44    27    42    1
@<TRIPOS>MOLECULE
../data/bude_mols_rdkit_confs_charged/molecule_29.pdb
 42 44 0 0 0
SMALL
GASTEIGER

@<TRIPOS>ATOM
      1  O1        -2.5020   -1.3560   -0.6340 O.2     1  UNL1       -0.2699
      2  C1        -2.0850   -0.1750   -0.6420 C.2     1  UNL1        0.2484
      3  N1        -2.9480    0.8720   -0.3280 N.am    1  UNL1       -0.2786
      4  C2        -4.3130    0.8320    0.0220 C.ar    1  UNL1        0.0756
      5  C3        -4.9830   -0.3630    0.0920 C.ar    1  UNL1       -0.0369
      6  C4        -6.3420   -0.4570    0.4360 C.ar    1  UNL1       -0.0598
      7  C5        -7.0080    0.6980    0.7080 C.ar    1  UNL1       -0.0582
      8  C6        -6.3390    1.8930    0.6380 C.ar    1  UNL1       -0.0183
      9  C7        -4.9910    2.0100    0.2990 C.ar    1  UNL1        0.1380
     10  O2        -4.3980    3.2570    0.2530 O.3     1  UNL1       -0.5049
     11  C8        -0.6580    0.0780   -0.9920 C.ar    1  UNL1        0.0388
     12  C9        -0.1650    1.3110   -1.2890 C.ar    1  UNL1       -0.0495
     13  C10        1.1580    1.4910   -1.5980 C.ar    1  UNL1       -0.0593
     14  C11        1.9940    0.4050   -1.6080 C.ar    1  UNL1       -0.0382
     15  C12        1.5420   -0.8700   -1.3130 C.ar    1  UNL1        0.0733
     16  S1         2.6790   -2.1620   -1.3550 S.O2    1  UNL1       -0.0589
     17  O3         1.9490   -3.4310   -1.7640 O.2     1  UNL1       -0.1842
     18  O4         3.6810   -1.8780   -2.4650 O.2     1  UNL1       -0.1842
     19  N2         3.4780   -2.4790    0.1130 N.pl3   1  UNL1       -0.5340
     20  C13        4.2850   -1.4580    0.6800 C.ar    1  UNL1       -0.0868
     21  C14        5.6260   -1.3060    0.3830 C.ar    1  UNL1       -0.0728
     22  C15        6.3890   -0.2970    0.9360 C.ar    1  UNL1       -0.0627
     23  C16        5.8360    0.6070    1.8160 C.ar    1  UNL1       -0.0584
     24  C17        4.5030    0.4720    2.1230 C.ar    1  UNL1       -0.0214
     25  C18        3.7340   -0.5540    1.5590 C.ar    1  UNL1        0.1026
     26  O5         2.3950   -0.6570    1.8960 O.3     1  UNL1       -0.5080
     27  C19        0.2200   -1.0000   -1.0110 C.ar    1  UNL1       -0.0261
     28 H          -2.5465    1.7705   -0.3543 H       1  UNL1        0.1552
     29 H          -4.4660   -1.2313   -0.1173 H       1  UNL1        0.0637
     30 H          -6.8189   -1.3711    0.4809 H       1  UNL1        0.0618
     31 H          -8.0073    0.6749    0.9646 H       1  UNL1        0.0619
     32 H          -6.8636    2.7564    0.8485 H       1  UNL1        0.0655
     33 H          -3.4926    3.3371    0.0254 H       1  UNL1        0.2922
     34 H          -0.7988    2.1254   -1.2814 H       1  UNL1        0.0625
     35 H           1.5199    2.4316   -1.8202 H       1  UNL1        0.0618
     36 H           2.9897    0.5416   -1.8423 H       1  UNL1        0.0636
     37 H           6.0710   -1.9673   -0.2726 H       1  UNL1        0.0607
     38 H           7.3874   -0.2190    0.6866 H       1  UNL1        0.0617
     39 H           6.4044    1.3615    2.2315 H       1  UNL1        0.0619
     40 H           4.0623    1.1362    2.7785 H       1  UNL1        0.0654
     41 H           1.8698   -1.3388    1.5256 H       1  UNL1        0.2921
     42 H          -0.1455   -1.9387   -0.7867 H       1  UNL1        0.0644
@<TRIPOS>UNITY_ATOM_ATTR
19 1
charge -1
@<TRIPOS>BOND
     1     1     2    2
     2     2     3   am
     3     2    11    1
     4     3     4    1
     5     4     5   ar
     6     4     9   ar
     7     5     6   ar
     8     6     7   ar
     9     7     8   ar
    10     8     9   ar
    11     9    10    1
    12    11    12   ar
    13    11    27   ar
    14    12    13   ar
    15    13    14   ar
    16    14    15   ar
    17    15    16    1
    18    15    27   ar
    19    16    17    2
    20    16    18    2
    21    16    19    1
    22    19    20    1
    23    20    21   ar
    24    20    25   ar
    25    21    22   ar
    26    22    23   ar
    27    23    24   ar
    28    24    25   ar
    29    25    26    1
    30     3    28    1
    31     5    29    1
    32     6    30    1
    33     7    31    1
    34     8    32    1
    35    10    33    1
    36    12    34    1
    37    13    35    1
    38    14    36    1
    39    21    37    1
    40    22    38    1
    41    23    39    1
    42    24    40    1
    43    26    41    1
    44    27    42    1
@<TRIPOS>MOLECULE
../data/bude_mols_rdkit_confs_charged/molecule_29.pdb
 42 44 0 0 0
SMALL
GASTEIGER

@<TRIPOS>ATOM
      1  O1         2.5310    1.5590    2.0160 O.2     1  UNL1       -0.2699
      2  C1         2.0720    1.0070    0.9960 C.2     1  UNL1        0.2484
      3  N1         2.8770    0.1340    0.2740 N.am    1  UNL1       -0.2786
      4  C2         4.2080   -0.2540    0.5210 C.ar    1  UNL1        0.0756
      5  C3         4.9610    0.1970    1.5750 C.ar    1  UNL1       -0.0369
      6  C4         6.2900   -0.2060    1.8010 C.ar    1  UNL1       -0.0598
      7  C5         6.8760   -1.0940    0.9320 C.ar    1  UNL1       -0.0582
      8  C6         6.1540   -1.5690   -0.1370 C.ar    1  UNL1       -0.0183
      9  C7         4.8510   -1.1540   -0.3310 C.ar    1  UNL1        0.1380
     10  O2         4.0970   -1.6230   -1.4110 O.3     1  UNL1       -0.5049
     11  C8         0.6720    1.3540    0.6520 C.ar    1  UNL1        0.0388
     12  C9        -0.0410    2.2310    1.4310 C.ar    1  UNL1       -0.0495
     13  C10       -1.3340    2.5490    1.1120 C.ar    1  UNL1       -0.0593
     14  C11       -1.9290    1.9920    0.0050 C.ar    1  UNL1       -0.0382
     15  C12       -1.2630    1.1130   -0.8050 C.ar    1  UNL1        0.0733
     16  S1        -2.0350    0.4210   -2.1980 S.O2    1  UNL1       -0.0589
     17  O3        -3.1070    1.3850   -2.6440 O.2     1  UNL1       -0.1842
     18  O4        -1.0820    0.1950   -3.3240 O.2     1  UNL1       -0.1842
     19  N2        -2.8430   -1.0660   -1.7880 N.pl3   1  UNL1       -0.5340
     20  C13       -3.9020   -1.0100   -0.8250 C.ar    1  UNL1       -0.0868
     21  C14       -3.6350   -1.1680    0.5150 C.ar    1  UNL1       -0.0728
     22  C15       -4.6530   -1.1150    1.4620 C.ar    1  UNL1       -0.0627
     23  C16       -5.9510   -0.9020    1.0520 C.ar    1  UNL1       -0.0584
     24  C17       -6.2540   -0.7400   -0.2830 C.ar    1  UNL1       -0.0214
     25  C18       -5.2090   -0.7980   -1.2070 C.ar    1  UNL1        0.1026
     26  O5        -5.5310   -0.6320   -2.5510 O.3     1  UNL1       -0.5080
     27  C19        0.0520    0.8090   -0.4530 C.ar    1  UNL1       -0.0261
     28 H           2.4585   -0.2693   -0.5207 H       1  UNL1        0.1552
     29 H           4.5318    0.8646    2.2346 H       1  UNL1        0.0637
     30 H           6.8174    0.1606    2.6087 H       1  UNL1        0.0618
     31 H           7.8498   -1.4018    1.0804 H       1  UNL1        0.0619
     32 H           6.5859   -2.2363   -0.7952 H       1  UNL1        0.0655
     33 H           3.2143   -1.3313   -1.5280 H       1  UNL1        0.2922
     34 H           0.4005    2.6535    2.2626 H       1  UNL1        0.0625
     35 H          -1.8631    3.2083    1.7039 H       1  UNL1        0.0618
     36 H          -2.9040    2.2435   -0.2212 H       1  UNL1        0.0636
     37 H          -2.6633   -1.3286    0.8232 H       1  UNL1        0.0607
     38 H          -4.4374   -1.2344    2.4641 H       1  UNL1        0.0617
     39 H          -6.7066   -0.8632    1.7538 H       1  UNL1        0.0619
     40 H          -7.2260   -0.5803   -0.5908 H       1  UNL1        0.0654
     41 H          -4.8575   -0.6644   -3.2016 H       1  UNL1        0.2921
     42 H           0.5826    0.1495   -1.0433 H       1  UNL1        0.0644
@<TRIPOS>UNITY_ATOM_ATTR
19 1
charge -1
@<TRIPOS>BOND
     1     1     2    2
     2     2     3   am
     3     2    11    1
     4     3     4    1
     5     4     5   ar
     6     4     9   ar
     7     5     6   ar
     8     6     7   ar
     9     7     8   ar
    10     8     9   ar
    11     9    10    1
    12    11    12   ar
    13    11    27   ar
    14    12    13   ar
    15    13    14   ar
    16    14    15   ar
    17    15    16    1
    18    15    27   ar
    19    16    17    2
    20    16    18    2
    21    16    19    1
    22    19    20    1
    23    20    21   ar
    24    20    25   ar
    25    21    22   ar
    26    22    23   ar
    27    23    24   ar
    28    24    25   ar
    29    25    26    1
    30     3    28    1
    31     5    29    1
    32     6    30    1
    33     7    31    1
    34     8    32    1
    35    10    33    1
    36    12    34    1
    37    13    35    1
    38    14    36    1
    39    21    37    1
    40    22    38    1
    41    23    39    1
    42    24    40    1
    43    26    41    1
    44    27    42    1
@<TRIPOS>MOLECULE
../data/bude_mols_rdkit_confs_charged/molecule_29.pdb
 42 44 0 0 0
SMALL
GASTEIGER

@<TRIPOS>ATOM
      1  O1        -1.2680    0.1060    1.4090 O.2     1  UNL1       -0.2699
      2  C1        -1.4450    0.5810    0.2610 C.2     1  UNL1        0.2484
      3  N1        -2.6250    0.2860   -0.4240 N.am    1  UNL1       -0.2786
      4  C2        -3.7320   -0.5150   -0.0120 C.ar    1  UNL1        0.0756
      5  C3        -3.7180   -1.1180    1.2160 C.ar    1  UNL1       -0.0369
      6  C4        -4.7830   -1.9100    1.6610 C.ar    1  UNL1       -0.0598
      7  C5        -5.8460   -2.0620    0.8180 C.ar    1  UNL1       -0.0582
      8  C6        -5.8850   -1.4700   -0.4150 C.ar    1  UNL1       -0.0183
      9  C7        -4.8210   -0.6830   -0.8490 C.ar    1  UNL1        0.1380
     10  O2        -4.8540   -0.0920   -2.0730 O.3     1  UNL1       -0.5049
     11  C8        -0.3770    1.4320   -0.2900 C.ar    1  UNL1        0.0388
     12  C9        -0.5950    2.1340   -1.4440 C.ar    1  UNL1       -0.0495
     13  C10        0.4370    2.9330   -1.9510 C.ar    1  UNL1       -0.0593
     14  C11        1.6600    3.0210   -1.3100 C.ar    1  UNL1       -0.0382
     15  C12        1.8680    2.3190   -0.1630 C.ar    1  UNL1        0.0733
     16  S1         3.3750    2.3740    0.7070 S.O2    1  UNL1       -0.0589
     17  O3         4.0100    3.7190    0.5520 O.2     1  UNL1       -0.1842
     18  O4         3.1580    2.1330    2.1560 O.2     1  UNL1       -0.1842
     19  N2         4.3810    1.1200    0.0780 N.pl3   1  UNL1       -0.5340
     20  C13        4.0550   -0.2430    0.1350 C.ar    1  UNL1       -0.0868
     21  C14        3.3300   -0.8830   -0.8740 C.ar    1  UNL1       -0.0728
     22  C15        3.0200   -2.2140   -0.7920 C.ar    1  UNL1       -0.0627
     23  C16        3.4120   -2.9710    0.2900 C.ar    1  UNL1       -0.0584
     24  C17        4.1240   -2.3700    1.2940 C.ar    1  UNL1       -0.0214
     25  C18        4.4390   -1.0320    1.2170 C.ar    1  UNL1        0.1026
     26  O5         5.1640   -0.4060    2.2310 O.3     1  UNL1       -0.5080
     27  C19        0.8370    1.5200    0.3450 C.ar    1  UNL1       -0.0261
     28 H          -2.7050    0.6879   -1.3192 H       1  UNL1        0.1552
     29 H          -2.9000   -0.9853    1.8310 H       1  UNL1        0.0637
     30 H          -4.7653   -2.3609    2.5891 H       1  UNL1        0.0618
     31 H          -6.6449   -2.6413    1.1200 H       1  UNL1        0.0619
     32 H          -6.7057   -1.6071   -1.0255 H       1  UNL1        0.0655
     33 H          -4.1343    0.4360   -2.3579 H       1  UNL1        0.2922
     34 H          -1.5028    2.0757   -1.9314 H       1  UNL1        0.0625
     35 H           0.2823    3.4671   -2.8204 H       1  UNL1        0.0618
     36 H           2.4091    3.6148   -1.6990 H       1  UNL1        0.0636
     37 H           3.0223   -0.3417   -1.6970 H       1  UNL1        0.0607
     38 H           2.4835   -2.6577   -1.5538 H       1  UNL1        0.0617
     39 H           3.1734   -3.9736    0.3433 H       1  UNL1        0.0619
     40 H           4.4256   -2.9226    2.1117 H       1  UNL1        0.0654
     41 H           5.3710    0.5054    2.1648 H       1  UNL1        0.2921
     42 H           0.9926    0.9863    1.2145 H       1  UNL1        0.0644
@<TRIPOS>UNITY_ATOM_ATTR
19 1
charge -1
@<TRIPOS>BOND
     1     1     2    2
     2     2     3   am
     3     2    11    1
     4     3     4    1
     5     4     5   ar
     6     4     9   ar
     7     5     6   ar
     8     6     7   ar
     9     7     8   ar
    10     8     9   ar
    11     9    10    1
    12    11    12   ar
    13    11    27   ar
    14    12    13   ar
    15    13    14   ar
    16    14    15   ar
    17    15    16    1
    18    15    27   ar
    19    16    17    2
    20    16    18    2
    21    16    19    1
    22    19    20    1
    23    20    21   ar
    24    20    25   ar
    25    21    22   ar
    26    22    23   ar
    27    23    24   ar
    28    24    25   ar
    29    25    26    1
    30     3    28    1
    31     5    29    1
    32     6    30    1
    33     7    31    1
    34     8    32    1
    35    10    33    1
    36    12    34    1
    37    13    35    1
    38    14    36    1
    39    21    37    1
    40    22    38    1
    41    23    39    1
    42    24    40    1
    43    26    41    1
    44    27    42    1
@<TRIPOS>MOLECULE
../data/bude_mols_rdkit_confs_charged/molecule_29.pdb
 42 44 0 0 0
SMALL
GASTEIGER

@<TRIPOS>ATOM
      1  O1        -2.3840   -1.3400   -0.0980 O.2     1  UNL1       -0.2699
      2  C1        -1.9500   -0.3270   -0.7140 C.2     1  UNL1        0.2484
      3  N1        -2.8870    0.6050   -1.2170 N.am    1  UNL1       -0.2786
      4  C2        -4.2970    0.5480   -1.1160 C.ar    1  UNL1        0.0756
      5  C3        -5.0360   -0.4230   -0.5070 C.ar    1  UNL1       -0.0369
      6  C4        -6.4160   -0.3630   -0.4750 C.ar    1  UNL1       -0.0598
      7  C5        -7.0650    0.6880   -1.0640 C.ar    1  UNL1       -0.0582
      8  C6        -6.3440    1.6760   -1.6810 C.ar    1  UNL1       -0.0183
      9  C7        -4.9760    1.6140   -1.7120 C.ar    1  UNL1        0.1380
     10  O2        -4.2780    2.6520   -2.3580 O.3     1  UNL1       -0.5049
     11  C8        -0.5110   -0.1790   -0.8700 C.ar    1  UNL1        0.0388
     12  C9         0.0730    0.9320   -1.3970 C.ar    1  UNL1       -0.0495
     13  C10        1.4630    1.0450   -1.5370 C.ar    1  UNL1       -0.0593
     14  C11        2.2690    0.0120   -1.1340 C.ar    1  UNL1       -0.0382
     15  C12        1.6950   -1.1300   -0.5940 C.ar    1  UNL1        0.0733
     16  S1         2.6350   -2.4990   -0.0500 S.O2    1  UNL1       -0.0589
     17  O3         3.8960   -2.5340   -0.8720 O.2     1  UNL1       -0.1842
     18  O4         1.8070   -3.7290   -0.2390 O.2     1  UNL1       -0.1842
     19  N2         2.9930   -2.2320    1.6250 N.pl3   1  UNL1       -0.5340
     20  C13        3.7520   -1.1120    2.0370 C.ar    1  UNL1       -0.0868
     21  C14        3.1650    0.1140    2.3670 C.ar    1  UNL1       -0.0728
     22  C15        3.9390    1.1800    2.7620 C.ar    1  UNL1       -0.0627
     23  C16        5.3050    1.0520    2.8390 C.ar    1  UNL1       -0.0584
     24  C17        5.9250   -0.1550    2.5170 C.ar    1  UNL1       -0.0214
     25  C18        5.1230   -1.2270    2.1170 C.ar    1  UNL1        0.1026
     26  O5         5.6910   -2.4460    1.7880 O.3     1  UNL1       -0.5080
     27  C19        0.3160   -1.2060   -0.4710 C.ar    1  UNL1       -0.0261
     28 H          -2.5154    1.3831   -1.6922 H       1  UNL1        0.1552
     29 H          -4.5544   -1.2192   -0.0607 H       1  UNL1        0.0637
     30 H          -6.9557   -1.1086   -0.0083 H       1  UNL1        0.0618
     31 H          -8.0957    0.7362   -1.0434 H       1  UNL1        0.0619
     32 H          -6.8331    2.4695   -2.1239 H       1  UNL1        0.0655
     33 H          -3.3419    2.6353   -2.3944 H       1  UNL1        0.2922
     34 H          -0.5259    1.7148   -1.7027 H       1  UNL1        0.0625
     35 H           1.8768    1.8999   -1.9407 H       1  UNL1        0.0618
     36 H           3.2939    0.0831   -1.2314 H       1  UNL1        0.0636
     37 H           2.1398    0.2198    2.3135 H       1  UNL1        0.0607
     38 H           3.4924    2.0790    3.0014 H       1  UNL1        0.0617
     39 H           5.8776    1.8568    3.1380 H       1  UNL1        0.0619
     40 H           6.9507   -0.2540    2.5728 H       1  UNL1        0.0654
     41 H           5.1461   -3.1599    1.5207 H       1  UNL1        0.2921
     42 H          -0.1039   -2.0583   -0.0681 H       1  UNL1        0.0644
@<TRIPOS>UNITY_ATOM_ATTR
19 1
charge -1
@<TRIPOS>BOND
     1     1     2    2
     2     2     3   am
     3     2    11    1
     4     3     4    1
     5     4     5   ar
     6     4     9   ar
     7     5     6   ar
     8     6     7   ar
     9     7     8   ar
    10     8     9   ar
    11     9    10    1
    12    11    12   ar
    13    11    27   ar
    14    12    13   ar
    15    13    14   ar
    16    14    15   ar
    17    15    16    1
    18    15    27   ar
    19    16    17    2
    20    16    18    2
    21    16    19    1
    22    19    20    1
    23    20    21   ar
    24    20    25   ar
    25    21    22   ar
    26    22    23   ar
    27    23    24   ar
    28    24    25   ar
    29    25    26    1
    30     3    28    1
    31     5    29    1
    32     6    30    1
    33     7    31    1
    34     8    32    1
    35    10    33    1
    36    12    34    1
    37    13    35    1
    38    14    36    1
    39    21    37    1
    40    22    38    1
    41    23    39    1
    42    24    40    1
    43    26    41    1
    44    27    42    1
@<TRIPOS>MOLECULE
../data/bude_mols_rdkit_confs_charged/molecule_29.pdb
 42 44 0 0 0
SMALL
GASTEIGER

@<TRIPOS>ATOM
      1  O1        -1.0050    0.5850    1.0820 O.2     1  UNL1       -0.2699
      2  C1        -1.4500   -0.0920    0.1200 C.2     1  UNL1        0.2484
      3  N1        -2.7600    0.1330   -0.3350 N.am    1  UNL1       -0.2786
      4  C2        -3.7000    1.0620    0.1560 C.ar    1  UNL1        0.0756
      5  C3        -3.4800    1.9230    1.1920 C.ar    1  UNL1       -0.0369
      6  C4        -4.4470    2.8390    1.6550 C.ar    1  UNL1       -0.0598
      7  C5        -5.6700    2.8800    1.0480 C.ar    1  UNL1       -0.0582
      8  C6        -5.9310    2.0320    0.0040 C.ar    1  UNL1       -0.0183
      9  C7        -4.9490    1.1250   -0.4420 C.ar    1  UNL1        0.1380
     10  O2        -5.2840    0.3170   -1.4810 O.3     1  UNL1       -0.5049
     11  C8        -0.5660   -1.0860   -0.4720 C.ar    1  UNL1        0.0388
     12  C9        -0.8610   -1.6590   -1.6780 C.ar    1  UNL1       -0.0495
     13  C10       -0.0080   -2.6240   -2.2480 C.ar    1  UNL1       -0.0593
     14  C11        1.1310   -2.9840   -1.5720 C.ar    1  UNL1       -0.0382
     15  C12        1.4540   -2.4270   -0.3590 C.ar    1  UNL1        0.0733
     16  S1         2.9090   -2.8840    0.5090 S.O2    1  UNL1       -0.0589
     17  O3         2.7180   -2.8600    1.9810 O.2     1  UNL1       -0.1842
     18  O4         3.2970   -4.3060    0.1330 O.2     1  UNL1       -0.1842
     19  N2         4.2360   -1.8820    0.0650 N.pl3   1  UNL1       -0.5340
     20  C13        4.1990   -0.4770    0.2970 C.ar    1  UNL1       -0.0868
     21  C14        3.6980    0.3720   -0.6610 C.ar    1  UNL1       -0.0728
     22  C15        3.6500    1.7410   -0.4630 C.ar    1  UNL1       -0.0627
     23  C16        4.1190    2.2510    0.7300 C.ar    1  UNL1       -0.0584
     24  C17        4.6270    1.4440    1.7140 C.ar    1  UNL1       -0.0214
     25  C18        4.6580    0.0750    1.4750 C.ar    1  UNL1        0.1026
     26  O5         5.1630   -0.7450    2.4500 O.3     1  UNL1       -0.5080
     27  C19        0.5950   -1.4880    0.1630 C.ar    1  UNL1       -0.0261
     28 H          -3.0579   -0.4262   -1.0885 H       1  UNL1        0.1552
     29 H          -2.5603    1.9026    1.6597 H       1  UNL1        0.0637
     30 H          -4.2333    3.4706    2.4427 H       1  UNL1        0.0618
     31 H          -6.3906    3.5435    1.3727 H       1  UNL1        0.0619
     32 H          -6.8530    2.0576   -0.4589 H       1  UNL1        0.0655
     33 H          -4.6635   -0.3022   -1.8119 H       1  UNL1        0.2922
     34 H          -1.7202   -1.3806   -2.1773 H       1  UNL1        0.0625
     35 H          -0.2355   -3.0531   -3.1585 H       1  UNL1        0.0618
     36 H           1.7598   -3.6903   -1.9852 H       1  UNL1        0.0636
     37 H           3.3492   -0.0208   -1.5493 H       1  UNL1        0.0607
     38 H           3.2718    2.3664   -1.1916 H       1  UNL1        0.0617
     39 H           4.0863    3.2706    0.8860 H       1  UNL1        0.0619
     40 H           4.9746    1.8389    2.6018 H       1  UNL1        0.0654
     41 H           5.1947   -1.6714    2.3130 H       1  UNL1        0.2921
     42 H           0.8285   -1.0623    1.0737 H       1  UNL1        0.0644
@<TRIPOS>UNITY_ATOM_ATTR
19 1
charge -1
@<TRIPOS>BOND
     1     1     2    2
     2     2     3   am
     3     2    11    1
     4     3     4    1
     5     4     5   ar
     6     4     9   ar
     7     5     6   ar
     8     6     7   ar
     9     7     8   ar
    10     8     9   ar
    11     9    10    1
    12    11    12   ar
    13    11    27   ar
    14    12    13   ar
    15    13    14   ar
    16    14    15   ar
    17    15    16    1
    18    15    27   ar
    19    16    17    2
    20    16    18    2
    21    16    19    1
    22    19    20    1
    23    20    21   ar
    24    20    25   ar
    25    21    22   ar
    26    22    23   ar
    27    23    24   ar
    28    24    25   ar
    29    25    26    1
    30     3    28    1
    31     5    29    1
    32     6    30    1
    33     7    31    1
    34     8    32    1
    35    10    33    1
    36    12    34    1
    37    13    35    1
    38    14    36    1
    39    21    37    1
    40    22    38    1
    41    23    39    1
    42    24    40    1
    43    26    41    1
    44    27    42    1
@<TRIPOS>MOLECULE
../data/bude_mols_rdkit_confs_charged/molecule_29.pdb
 42 44 0 0 0
SMALL
GASTEIGER

@<TRIPOS>ATOM
      1  O1         2.1140    1.0420   -1.0590 O.2     1  UNL1       -0.2699
      2  C1         2.0110    0.0100   -0.3690 C.2     1  UNL1        0.2484
      3  N1         3.1050   -0.4780    0.3480 N.am    1  UNL1       -0.2786
      4  C2         4.4040    0.0660    0.4120 C.ar    1  UNL1        0.0756
      5  C3         4.7970    1.1960   -0.2450 C.ar    1  UNL1       -0.0369
      6  C4         6.0990    1.7230   -0.1680 C.ar    1  UNL1       -0.0598
      7  C5         7.0420    1.0930    0.5970 C.ar    1  UNL1       -0.0582
      8  C6         6.6870   -0.0460    1.2730 C.ar    1  UNL1       -0.0183
      9  C7         5.3820   -0.5620    1.1870 C.ar    1  UNL1        0.1380
     10  O2         5.0940   -1.7070    1.8910 O.3     1  UNL1       -0.5049
     11  C8         0.6890   -0.6340   -0.3690 C.ar    1  UNL1        0.0388
     12  C9         0.3300   -1.6500    0.4870 C.ar    1  UNL1       -0.0495
     13  C10       -0.9210   -2.2540    0.4730 C.ar    1  UNL1       -0.0593
     14  C11       -1.8510   -1.8190   -0.4410 C.ar    1  UNL1       -0.0382
     15  C12       -1.5250   -0.8050   -1.3120 C.ar    1  UNL1        0.0733
     16  S1        -2.6900   -0.2370   -2.4800 S.O2    1  UNL1       -0.0589
     17  O3        -3.5490   -1.3660   -2.9790 O.2     1  UNL1       -0.1842
     18  O4        -1.9330    0.3020   -3.6600 O.2     1  UNL1       -0.1842
     19  N2        -3.6430    1.0500   -1.8460 N.pl3   1  UNL1       -0.5340
     20  C13       -4.4840    0.9150   -0.7200 C.ar    1  UNL1       -0.0868
     21  C14       -5.8040    0.5360   -0.8070 C.ar    1  UNL1       -0.0728
     22  C15       -6.5910    0.4180    0.3370 C.ar    1  UNL1       -0.0627
     23  C16       -6.0780    0.6760    1.5890 C.ar    1  UNL1       -0.0584
     24  C17       -4.7540    1.0550    1.6750 C.ar    1  UNL1       -0.0214
     25  C18       -3.9780    1.1710    0.5390 C.ar    1  UNL1        0.1026
     26  O5        -2.6530    1.5560    0.6860 O.3     1  UNL1       -0.5080
     27  C19       -0.2800   -0.2220   -1.2790 C.ar    1  UNL1       -0.0261
     28 H           2.9513   -1.2983    0.8702 H       1  UNL1        0.1552
     29 H           4.1031    1.6892   -0.8284 H       1  UNL1        0.0637
     30 H           6.3418    2.5815   -0.6866 H       1  UNL1        0.0618
     31 H           8.0013    1.4674    0.6640 H       1  UNL1        0.0619
     32 H           7.3883   -0.5318    1.8537 H       1  UNL1        0.0655
     33 H           4.2333   -2.0756    1.8541 H       1  UNL1        0.2922
     34 H           1.0255   -1.9800    1.1743 H       1  UNL1        0.0625
     35 H          -1.1472   -3.0130    1.1346 H       1  UNL1        0.0618
     36 H          -2.7880   -2.2503   -0.4737 H       1  UNL1        0.0636
     37 H          -6.2166    0.3365   -1.7317 H       1  UNL1        0.0607
     38 H          -7.5781    0.1315    0.2443 H       1  UNL1        0.0617
     39 H          -6.6640    0.5888    2.4340 H       1  UNL1        0.0619
     40 H          -4.3392    1.2540    2.5988 H       1  UNL1        0.0654
     41 H          -2.1038    1.6425   -0.0682 H       1  UNL1        0.2921
     42 H          -0.0596    0.5368   -1.9428 H       1  UNL1        0.0644
@<TRIPOS>UNITY_ATOM_ATTR
19 1
charge -1
@<TRIPOS>BOND
     1     1     2    2
     2     2     3   am
     3     2    11    1
     4     3     4    1
     5     4     5   ar
     6     4     9   ar
     7     5     6   ar
     8     6     7   ar
     9     7     8   ar
    10     8     9   ar
    11     9    10    1
    12    11    12   ar
    13    11    27   ar
    14    12    13   ar
    15    13    14   ar
    16    14    15   ar
    17    15    16    1
    18    15    27   ar
    19    16    17    2
    20    16    18    2
    21    16    19    1
    22    19    20    1
    23    20    21   ar
    24    20    25   ar
    25    21    22   ar
    26    22    23   ar
    27    23    24   ar
    28    24    25   ar
    29    25    26    1
    30     3    28    1
    31     5    29    1
    32     6    30    1
    33     7    31    1
    34     8    32    1
    35    10    33    1
    36    12    34    1
    37    13    35    1
    38    14    36    1
    39    21    37    1
    40    22    38    1
    41    23    39    1
    42    24    40    1
    43    26    41    1
    44    27    42    1
@<TRIPOS>MOLECULE
../data/bude_mols_rdkit_confs_charged/molecule_29.pdb
 42 44 0 0 0
SMALL
GASTEIGER

@<TRIPOS>ATOM
      1  O1        -2.1970   -1.8450    1.4960 O.2     1  UNL1       -0.2699
      2  C1        -1.6980   -1.3130    0.4930 C.2     1  UNL1        0.2484
      3  N1        -2.1790   -0.1070   -0.0220 N.am    1  UNL1       -0.2786
      4  C2        -3.2540    0.6570    0.4980 C.ar    1  UNL1        0.0756
      5  C3        -3.9600    0.2720    1.5990 C.ar    1  UNL1       -0.0369
      6  C4        -5.0240    1.0380    2.1040 C.ar    1  UNL1       -0.0598
      7  C5        -5.3660    2.1960    1.4840 C.ar    1  UNL1       -0.0582
      8  C6        -4.6860    2.6140    0.3840 C.ar    1  UNL1       -0.0183
      9  C7        -3.6260    1.8520   -0.1200 C.ar    1  UNL1        0.1380
     10  O2        -2.9530    2.2870   -1.2270 O.3     1  UNL1       -0.5049
     11  C8        -0.5520   -1.9680   -0.1950 C.ar    1  UNL1        0.0388
     12  C9        -0.3870   -3.3150    0.0550 C.ar    1  UNL1       -0.0495
     13  C10        0.6530   -3.9680   -0.5430 C.ar    1  UNL1       -0.0593
     14  C11        1.5130   -3.2980   -1.3730 C.ar    1  UNL1       -0.0382
     15  C12        1.3740   -1.9600   -1.6400 C.ar    1  UNL1        0.0733
     16  S1         2.4410   -1.0810   -2.6830 S.O2    1  UNL1       -0.0589
     17  O3         3.0070   -2.0530   -3.7070 O.2     1  UNL1       -0.1842
     18  O4         1.6970   -0.0380   -3.4870 O.2     1  UNL1       -0.1842
     19  N2         3.7800   -0.3970   -1.8550 N.pl3   1  UNL1       -0.5340
     20  C13        3.6950    0.5540   -0.8310 C.ar    1  UNL1       -0.0868
     21  C14        3.7060    1.9040   -1.1160 C.ar    1  UNL1       -0.0728
     22  C15        3.6220    2.8560   -0.0980 C.ar    1  UNL1       -0.0627
     23  C16        3.5260    2.4740    1.2100 C.ar    1  UNL1       -0.0584
     24  C17        3.5140    1.1260    1.5120 C.ar    1  UNL1       -0.0214
     25  C18        3.5980    0.1800    0.4920 C.ar    1  UNL1        0.1026
     26  O5         3.5810   -1.1470    0.8510 O.3     1  UNL1       -0.5080
     27  C19        0.3060   -1.3000   -1.0230 C.ar    1  UNL1       -0.0261
     28 H          -1.7283    0.2463   -0.8228 H       1  UNL1        0.1552
     29 H          -3.7055   -0.6075    2.0752 H       1  UNL1        0.0637
     30 H          -5.5413    0.7228    2.9395 H       1  UNL1        0.0618
     31 H          -6.1471    2.7625    1.8501 H       1  UNL1        0.0619
     32 H          -4.9522    3.4960   -0.0810 H       1  UNL1        0.0655
     33 H          -2.2420    1.7830   -1.5712 H       1  UNL1        0.2922
     34 H          -1.0355   -3.8183    0.6804 H       1  UNL1        0.0625
     35 H           0.7924   -4.9755   -0.3680 H       1  UNL1        0.0618
     36 H           2.2901   -3.8167   -1.8112 H       1  UNL1        0.0636
     37 H           3.7775    2.2151   -2.0974 H       1  UNL1        0.0607
     38 H           3.6326    3.8600   -0.3366 H       1  UNL1        0.0617
     39 H           3.4635    3.1804    1.9598 H       1  UNL1        0.0619
     40 H           3.4427    0.8189    2.4947 H       1  UNL1        0.0654
     41 H           3.6356   -1.8113    0.1924 H       1  UNL1        0.2921
     42 H           0.1637   -0.2926   -1.1958 H       1  UNL1        0.0644
@<TRIPOS>UNITY_ATOM_ATTR
19 1
charge -1
@<TRIPOS>BOND
     1     1     2    2
     2     2     3   am
     3     2    11    1
     4     3     4    1
     5     4     5   ar
     6     4     9   ar
     7     5     6   ar
     8     6     7   ar
     9     7     8   ar
    10     8     9   ar
    11     9    10    1
    12    11    12   ar
    13    11    27   ar
    14    12    13   ar
    15    13    14   ar
    16    14    15   ar
    17    15    16    1
    18    15    27   ar
    19    16    17    2
    20    16    18    2
    21    16    19    1
    22    19    20    1
    23    20    21   ar
    24    20    25   ar
    25    21    22   ar
    26    22    23   ar
    27    23    24   ar
    28    24    25   ar
    29    25    26    1
    30     3    28    1
    31     5    29    1
    32     6    30    1
    33     7    31    1
    34     8    32    1
    35    10    33    1
    36    12    34    1
    37    13    35    1
    38    14    36    1
    39    21    37    1
    40    22    38    1
    41    23    39    1
    42    24    40    1
    43    26    41    1
    44    27    42    1
@<TRIPOS>MOLECULE
../data/bude_mols_rdkit_confs_charged/molecule_29.pdb
 42 44 0 0 0
SMALL
GASTEIGER

@<TRIPOS>ATOM
      1  O1         1.7510    0.8580    0.5550 O.2     1  UNL1       -0.2699
      2  C1         1.6030    0.1520   -0.4740 C.2     1  UNL1        0.2484
      3  N1         2.4480   -0.9520   -0.6960 N.am    1  UNL1       -0.2786
      4  C2         3.5060   -1.4020    0.1280 C.ar    1  UNL1        0.0756
      5  C3         3.8790   -0.8140    1.3070 C.ar    1  UNL1       -0.0369
      6  C4         4.9250   -1.2660    2.1150 C.ar    1  UNL1       -0.0598
      7  C5         5.6210   -2.3670    1.7010 C.ar    1  UNL1       -0.0582
      8  C6         5.2790   -2.9810    0.5300 C.ar    1  UNL1       -0.0183
      9  C7         4.2280   -2.5200   -0.2720 C.ar    1  UNL1        0.1380
     10  O2         3.9790   -3.2270   -1.4350 O.3     1  UNL1       -0.5049
     11  C8         0.5210    0.5250   -1.4240 C.ar    1  UNL1        0.0388
     12  C9         0.5030    0.0210   -2.6970 C.ar    1  UNL1       -0.0495
     13  C10       -0.4980    0.3380   -3.6240 C.ar    1  UNL1       -0.0593
     14  C11       -1.4770    1.1960   -3.1840 C.ar    1  UNL1       -0.0382
     15  C12       -1.4760    1.7090   -1.9190 C.ar    1  UNL1        0.0733
     16  S1        -2.7660    2.8090   -1.4150 S.O2    1  UNL1       -0.0589
     17  O3        -3.2640    3.4880   -2.6620 O.2     1  UNL1       -0.1842
     18  O4        -2.2670    3.8550   -0.4890 O.2     1  UNL1       -0.1842
     19  N2        -4.0790    1.9270   -0.7330 N.pl3   1  UNL1       -0.5340
     20  C13       -3.9350    1.1280    0.4330 C.ar    1  UNL1       -0.0868
     21  C14       -3.5900   -0.1920    0.3650 C.ar    1  UNL1       -0.0728
     22  C15       -3.4520   -0.9610    1.4970 C.ar    1  UNL1       -0.0627
     23  C16       -3.6610   -0.4110    2.7290 C.ar    1  UNL1       -0.0584
     24  C17       -4.0090    0.9210    2.7970 C.ar    1  UNL1       -0.0214
     25  C18       -4.1480    1.6960    1.6630 C.ar    1  UNL1        0.1026
     26  O5        -4.5020    3.0260    1.8450 O.3     1  UNL1       -0.5080
     27  C19       -0.4810    1.3790   -1.0320 C.ar    1  UNL1       -0.0261
     28 H           2.2840   -1.4692   -1.5175 H       1  UNL1        0.1552
     29 H           3.3531    0.0173    1.6190 H       1  UNL1        0.0637
     30 H           5.1644   -0.7843    2.9957 H       1  UNL1        0.0618
     31 H           6.4006   -2.7323    2.2701 H       1  UNL1        0.0619
     32 H           5.8121   -3.8110    0.2267 H       1  UNL1        0.0655
     33 H           3.2865   -2.9595   -2.0067 H       1  UNL1        0.2922
     34 H           1.2589   -0.6195   -2.9856 H       1  UNL1        0.0625
     35 H          -0.5002   -0.0497   -4.5804 H       1  UNL1        0.0618
     36 H          -2.2368    1.4609   -3.8302 H       1  UNL1        0.0636
     37 H          -3.4289   -0.6230   -0.5588 H       1  UNL1        0.0607
     38 H          -3.1899   -1.9558    1.4149 H       1  UNL1        0.0617
     39 H          -3.5611   -0.9771    3.5860 H       1  UNL1        0.0619
     40 H          -4.1701    1.3509    3.7213 H       1  UNL1        0.0654
     41 H          -4.6073    3.5885    1.1031 H       1  UNL1        0.2921
     42 H          -0.4860    1.7701   -0.0770 H       1  UNL1        0.0644
@<TRIPOS>UNITY_ATOM_ATTR
19 1
charge -1
@<TRIPOS>BOND
     1     1     2    2
     2     2     3   am
     3     2    11    1
     4     3     4    1
     5     4     5   ar
     6     4     9   ar
     7     5     6   ar
     8     6     7   ar
     9     7     8   ar
    10     8     9   ar
    11     9    10    1
    12    11    12   ar
    13    11    27   ar
    14    12    13   ar
    15    13    14   ar
    16    14    15   ar
    17    15    16    1
    18    15    27   ar
    19    16    17    2
    20    16    18    2
    21    16    19    1
    22    19    20    1
    23    20    21   ar
    24    20    25   ar
    25    21    22   ar
    26    22    23   ar
    27    23    24   ar
    28    24    25   ar
    29    25    26    1
    30     3    28    1
    31     5    29    1
    32     6    30    1
    33     7    31    1
    34     8    32    1
    35    10    33    1
    36    12    34    1
    37    13    35    1
    38    14    36    1
    39    21    37    1
    40    22    38    1
    41    23    39    1
    42    24    40    1
    43    26    41    1
    44    27    42    1
@<TRIPOS>MOLECULE
../data/bude_mols_rdkit_confs_charged/molecule_29.pdb
 42 44 0 0 0
SMALL
GASTEIGER

@<TRIPOS>ATOM
      1  O1        -2.7610   -0.0880   -2.3170 O.2     1  UNL1       -0.2699
      2  C1        -1.7970   -0.3260   -1.5490 C.2     1  UNL1        0.2484
      3  N1        -1.9820   -0.1410   -0.1570 N.am    1  UNL1       -0.2786
      4  C2        -3.1420    0.2880    0.4990 C.ar    1  UNL1        0.0756
      5  C3        -4.3260    0.6100   -0.0990 C.ar    1  UNL1       -0.0369
      6  C4        -5.4530    1.0350    0.6280 C.ar    1  UNL1       -0.0598
      7  C5        -5.3510    1.1270    1.9980 C.ar    1  UNL1       -0.0582
      8  C6        -4.1750    0.8120    2.6440 C.ar    1  UNL1       -0.0183
      9  C7        -3.1090    0.4040    1.8870 C.ar    1  UNL1        0.1380
     10  O2        -1.9350    0.0910    2.5430 O.3     1  UNL1       -0.5049
     11  C8        -0.5100   -0.7890   -2.1240 C.ar    1  UNL1        0.0388
     12  C9        -0.3880   -0.7550   -3.4990 C.ar    1  UNL1       -0.0495
     13  C10        0.7960   -1.1830   -4.0570 C.ar    1  UNL1       -0.0593
     14  C11        1.8340   -1.6340   -3.2730 C.ar    1  UNL1       -0.0382
     15  C12        1.7340   -1.6770   -1.9020 C.ar    1  UNL1        0.0733
     16  S1         3.0340   -2.2440   -0.8790 S.O2    1  UNL1       -0.0589
     17  O3         3.8580   -3.2680   -1.6150 O.2     1  UNL1       -0.1842
     18  O4         2.4720   -2.9040    0.3430 O.2     1  UNL1       -0.1842
     19  N2         4.0820   -0.9490   -0.4250 N.pl3   1  UNL1       -0.5340
     20  C13        3.5860    0.1600    0.3360 C.ar    1  UNL1       -0.0868
     21  C14        3.0700    1.2850   -0.2650 C.ar    1  UNL1       -0.0728
     22  C15        2.6030    2.3300    0.4860 C.ar    1  UNL1       -0.0627
     23  C16        2.6540    2.2480    1.8630 C.ar    1  UNL1       -0.0584
     24  C17        3.1750    1.1140    2.4680 C.ar    1  UNL1       -0.0214
     25  C18        3.6440    0.0620    1.7090 C.ar    1  UNL1        0.1026
     26  O5         4.1740   -1.0940    2.3020 O.3     1  UNL1       -0.5080
     27  C19        0.5260   -1.2390   -1.3450 C.ar    1  UNL1       -0.0261
     28 H          -1.2052   -0.3367    0.4153 H       1  UNL1        0.1552
     29 H          -4.3974    0.5388   -1.1261 H       1  UNL1        0.0637
     30 H          -6.3344    1.2720    0.1463 H       1  UNL1        0.0618
     31 H          -6.1669    1.4363    2.5491 H       1  UNL1        0.0619
     32 H          -4.0996    0.8817    3.6709 H       1  UNL1        0.0655
     33 H          -1.1866   -0.1915    2.0550 H       1  UNL1        0.2922
     34 H          -1.1626   -0.4182   -4.0920 H       1  UNL1        0.0625
     35 H           0.9074   -1.1653   -5.0828 H       1  UNL1        0.0618
     36 H           2.7075   -1.9471   -3.7246 H       1  UNL1        0.0636
     37 H           3.0346    1.3418   -1.2948 H       1  UNL1        0.0607
     38 H           2.2169    3.1701    0.0275 H       1  UNL1        0.0617
     39 H           2.3053    3.0287    2.4409 H       1  UNL1        0.0619
     40 H           3.2122    1.0566    3.4977 H       1  UNL1        0.0654
     41 H           4.4863   -1.7952    1.7646 H       1  UNL1        0.2921
     42 H           0.4118   -1.2552   -0.3195 H       1  UNL1        0.0644
@<TRIPOS>UNITY_ATOM_ATTR
19 1
charge -1
@<TRIPOS>BOND
     1     1     2    2
     2     2     3   am
     3     2    11    1
     4     3     4    1
     5     4     5   ar
     6     4     9   ar
     7     5     6   ar
     8     6     7   ar
     9     7     8   ar
    10     8     9   ar
    11     9    10    1
    12    11    12   ar
    13    11    27   ar
    14    12    13   ar
    15    13    14   ar
    16    14    15   ar
    17    15    16    1
    18    15    27   ar
    19    16    17    2
    20    16    18    2
    21    16    19    1
    22    19    20    1
    23    20    21   ar
    24    20    25   ar
    25    21    22   ar
    26    22    23   ar
    27    23    24   ar
    28    24    25   ar
    29    25    26    1
    30     3    28    1
    31     5    29    1
    32     6    30    1
    33     7    31    1
    34     8    32    1
    35    10    33    1
    36    12    34    1
    37    13    35    1
    38    14    36    1
    39    21    37    1
    40    22    38    1
    41    23    39    1
    42    24    40    1
    43    26    41    1
    44    27    42    1
@<TRIPOS>MOLECULE
../data/bude_mols_rdkit_confs_charged/molecule_29.pdb
 42 44 0 0 0
SMALL
GASTEIGER

@<TRIPOS>ATOM
      1  O1        -0.8450    0.5250   -0.9190 O.2     1  UNL1       -0.2699
      2  C1        -1.3670    0.3070    0.1890 C.2     1  UNL1        0.2484
      3  N1        -2.7470    0.0590    0.2570 N.am    1  UNL1       -0.2786
      4  C2        -3.6800    0.0140   -0.7960 C.ar    1  UNL1        0.0756
      5  C3        -3.3390    0.2190   -2.1000 C.ar    1  UNL1       -0.0369
      6  C4        -4.2900    0.1690   -3.1300 C.ar    1  UNL1       -0.0598
      7  C5        -5.5940   -0.0960   -2.7960 C.ar    1  UNL1       -0.0582
      8  C6        -5.9940   -0.3110   -1.4880 C.ar    1  UNL1       -0.0183
      9  C7        -5.0320   -0.2520   -0.5180 C.ar    1  UNL1        0.1380
     10  O2        -5.4060   -0.4650    0.8030 O.3     1  UNL1       -0.5049
     11  C8        -0.5050    0.3200    1.3990 C.ar    1  UNL1        0.0388
     12  C9        -0.9270   -0.2200    2.5840 C.ar    1  UNL1       -0.0495
     13  C10       -0.0580   -0.1570    3.6640 C.ar    1  UNL1       -0.0593
     14  C11        1.1810    0.4250    3.5500 C.ar    1  UNL1       -0.0382
     15  C12        1.6370    0.9790    2.3670 C.ar    1  UNL1        0.0733
     16  S1         3.2000    1.7020    2.2590 S.O2    1  UNL1       -0.0589
     17  O3         3.2030    2.8430    1.2530 O.2     1  UNL1       -0.1842
     18  O4         3.6030    2.3320    3.5770 O.2     1  UNL1       -0.1842
     19  N2         4.4520    0.6260    1.8060 N.pl3   1  UNL1       -0.5340
     20  C13        4.3800   -0.0160    0.5390 C.ar    1  UNL1       -0.0868
     21  C14        4.9260    0.5510   -0.6030 C.ar    1  UNL1       -0.0728
     22  C15        4.8540   -0.0600   -1.8360 C.ar    1  UNL1       -0.0627
     23  C16        4.2280   -1.2750   -1.9800 C.ar    1  UNL1       -0.0584
     24  C17        3.6800   -1.8550   -0.8580 C.ar    1  UNL1       -0.0214
     25  C18        3.7520   -1.2350    0.3950 C.ar    1  UNL1        0.1026
     26  O5         3.1920   -1.8470    1.4980 O.3     1  UNL1       -0.5080
     27  C19        0.7630    0.9090    1.3060 C.ar    1  UNL1       -0.0261
     28 H          -3.1091   -0.1046    1.1577 H       1  UNL1        0.1552
     29 H          -2.3539    0.4164   -2.3359 H       1  UNL1        0.0637
     30 H          -4.0162    0.3273   -4.1123 H       1  UNL1        0.0618
     31 H          -6.3017   -0.1365   -3.5461 H       1  UNL1        0.0619
     32 H          -6.9797   -0.5081   -1.2543 H       1  UNL1        0.0655
     33 H          -4.7630   -0.4292    1.4836 H       1  UNL1        0.2922
     34 H          -1.8574   -0.6579    2.6710 H       1  UNL1        0.0625
     35 H          -0.3483   -0.5552    4.5707 H       1  UNL1        0.0618
     36 H           1.7955    0.4500    4.3787 H       1  UNL1        0.0636
     37 H           5.4031    1.4629   -0.5266 H       1  UNL1        0.0607
     38 H           5.2742    0.3992   -2.6592 H       1  UNL1        0.0617
     39 H           4.1705   -1.7382   -2.9004 H       1  UNL1        0.0619
     40 H           3.2054   -2.7675   -0.9426 H       1  UNL1        0.0654
     41 H           3.2392   -1.4336    2.3375 H       1  UNL1        0.2921
     42 H           1.0550    1.3087    0.4004 H       1  UNL1        0.0644
@<TRIPOS>UNITY_ATOM_ATTR
19 1
charge -1
@<TRIPOS>BOND
     1     1     2    2
     2     2     3   am
     3     2    11    1
     4     3     4    1
     5     4     5   ar
     6     4     9   ar
     7     5     6   ar
     8     6     7   ar
     9     7     8   ar
    10     8     9   ar
    11     9    10    1
    12    11    12   ar
    13    11    27   ar
    14    12    13   ar
    15    13    14   ar
    16    14    15   ar
    17    15    16    1
    18    15    27   ar
    19    16    17    2
    20    16    18    2
    21    16    19    1
    22    19    20    1
    23    20    21   ar
    24    20    25   ar
    25    21    22   ar
    26    22    23   ar
    27    23    24   ar
    28    24    25   ar
    29    25    26    1
    30     3    28    1
    31     5    29    1
    32     6    30    1
    33     7    31    1
    34     8    32    1
    35    10    33    1
    36    12    34    1
    37    13    35    1
    38    14    36    1
    39    21    37    1
    40    22    38    1
    41    23    39    1
    42    24    40    1
    43    26    41    1
    44    27    42    1
