@<TRIPOS>MOLECULE
../data/bude_mols_rdkit_confs_charged/molecule_33.pdb
 34 36 0 0 0
SMALL
GASTEIGER

@<TRIPOS>ATOM
      1  N1         0.0940   -2.1850   -2.0840 N.pl3   1  UNL1       -0.3510
      2  C1         1.1410   -1.4550   -1.4960 C.ar    1  UNL1        0.1323
      3  C2         0.9030   -0.7960   -0.3150 C.ar    1  UNL1        0.0701
      4  N2        -0.3990   -0.8780    0.2710 N.pl3   1  UNL1       -0.3117
      5  C3        -1.4190    0.0140   -0.0030 C.ar    1  UNL1        0.0455
      6  C4        -1.1550    1.0350   -0.8920 C.ar    1  UNL1       -0.0397
      7  C5        -2.0810    1.9780   -1.2420 C.ar    1  UNL1       -0.0600
      8  C6        -3.3360    1.9020   -0.6790 C.ar    1  UNL1       -0.0609
      9  C7        -3.6180    0.9030    0.2000 C.ar    1  UNL1       -0.0460
     10  C8        -2.6590   -0.0660    0.5570 C.ar    1  UNL1        0.0799
     11  C9        -3.0730   -1.0760    1.4980 C.2     1  UNL1        0.3386
     12  O1        -2.3350   -1.9750    1.8900 O.2     1  UNL1       -0.2451
     13  O2        -4.3570   -1.0590    2.0010 O.3     1  UNL1       -0.4771
     14  C10        1.9070   -0.0710    0.2880 C.ar    1  UNL1        0.0405
     15  C11        1.6560    0.5840    1.4700 C.ar    1  UNL1       -0.0492
     16  C12        2.6770    1.3020    2.0520 C.ar    1  UNL1       -0.0609
     17  C13        3.9100    1.3490    1.4490 C.ar    1  UNL1       -0.0582
     18  C14        4.1590    0.6900    0.2610 C.ar    1  UNL1       -0.0186
     19  C15        3.1570   -0.0310   -0.3360 C.ar    1  UNL1        0.1409
     20  O3         3.3480   -0.6710   -1.4610 O.2     1  UNL1       -0.4208
     21  C16        2.4200   -1.3720   -2.0680 C.ar    1  UNL1        0.3601
     22  O4         2.6090   -1.9850   -3.1480 O.2     1  UNL1       -0.2430
     23 H          -0.7886   -2.2171   -1.6490 H       1  UNL1        0.1426
     24 H           0.2431   -2.6643   -2.9309 H       1  UNL1        0.1426
     25 H          -0.5788   -1.6100    0.9044 H       1  UNL1        0.1522
     26 H          -0.2143    1.0897   -1.3128 H       1  UNL1        0.0636
     27 H          -1.8458    2.7277   -1.9110 H       1  UNL1        0.0618
     28 H          -4.0575    2.5985   -0.9226 H       1  UNL1        0.0618
     29 H          -4.5606    0.8532    0.6172 H       1  UNL1        0.0626
     30 H          -4.9571   -0.3919    1.7312 H       1  UNL1        0.2954
     31 H           0.7241    0.5388    1.9111 H       1  UNL1        0.0625
     32 H           2.5159    1.8037    2.9394 H       1  UNL1        0.0618
     33 H           4.6683    1.8894    1.8940 H       1  UNL1        0.0619
     34 H           5.0932    0.7399   -0.1746 H       1  UNL1        0.0654
@<TRIPOS>BOND
     1     1     2    1
     2     2     3   ar
     3     2    21   ar
     4     3     4    1
     5     3    14   ar
     6     4     5    1
     7     5     6   ar
     8     5    10   ar
     9     6     7   ar
    10     7     8   ar
    11     8     9   ar
    12     9    10   ar
    13    10    11    1
    14    11    12    2
    15    11    13    1
    16    14    15   ar
    17    14    19   ar
    18    15    16   ar
    19    16    17   ar
    20    17    18   ar
    21    18    19   ar
    22    19    20   ar
    23    20    21   ar
    24    21    22    2
    25     1    23    1
    26     1    24    1
    27     4    25    1
    28     6    26    1
    29     7    27    1
    30     8    28    1
    31     9    29    1
    32    13    30    1
    33    15    31    1
    34    16    32    1
    35    17    33    1
    36    18    34    1
@<TRIPOS>MOLECULE
../data/bude_mols_rdkit_confs_charged/molecule_33.pdb
 34 36 0 0 0
SMALL
GASTEIGER

@<TRIPOS>ATOM
      1  N1         0.0750   -2.6650    1.7210 N.pl3   1  UNL1       -0.3510
      2  C1        -0.9000   -1.9550    1.0220 C.ar    1  UNL1        0.1323
      3  C2        -0.7990   -0.6250    0.7000 C.ar    1  UNL1        0.0701
      4  N2         0.3500    0.1370    1.0740 N.pl3   1  UNL1       -0.3117
      5  C3         1.4730    0.2510    0.2550 C.ar    1  UNL1        0.0455
      6  C4         1.4470   -0.4170   -0.9750 C.ar    1  UNL1       -0.0397
      7  C5         2.5110   -0.3630   -1.8530 C.ar    1  UNL1       -0.0600
      8  C6         3.6320    0.3720   -1.5040 C.ar    1  UNL1       -0.0609
      9  C7         3.6740    1.0290   -0.3100 C.ar    1  UNL1       -0.0460
     10  C8         2.5800    0.9650    0.5760 C.ar    1  UNL1        0.0799
     11  C9         2.7260    1.6910    1.8020 C.2     1  UNL1        0.3386
     12  O1         3.8080    2.3360    2.0200 O.2     1  UNL1       -0.2451
     13  O2         1.7990    1.7690    2.8030 O.3     1  UNL1       -0.4771
     14  C10       -1.8350   -0.0480    0.0070 C.ar    1  UNL1        0.0405
     15  C11       -1.7250    1.2830   -0.3110 C.ar    1  UNL1       -0.0492
     16  C12       -2.7710    1.8660   -1.0110 C.ar    1  UNL1       -0.0609
     17  C13       -3.8770    1.1230   -1.3690 C.ar    1  UNL1       -0.0582
     18  C14       -3.9930   -0.2140   -1.0530 C.ar    1  UNL1       -0.0186
     19  C15       -2.9600   -0.7980   -0.3590 C.ar    1  UNL1        0.1409
     20  O3        -3.0230   -2.0640   -0.0350 O.2     1  UNL1       -0.4208
     21  C16       -2.0540   -2.6430    0.6250 C.ar    1  UNL1        0.3601
     22  O4        -2.1890   -3.8690    0.9000 O.2     1  UNL1       -0.2430
     23 H           0.8982   -2.2119    2.0148 H       1  UNL1        0.1426
     24 H          -0.0596   -3.6196    1.9209 H       1  UNL1        0.1426
     25 H           0.3490    0.5994    1.9432 H       1  UNL1        0.1522
     26 H           0.6106   -0.9641   -1.2321 H       1  UNL1        0.0636
     27 H           2.4718   -0.8624   -2.7553 H       1  UNL1        0.0618
     28 H           4.4364    0.4224   -2.1485 H       1  UNL1        0.0618
     29 H           4.5109    1.5758   -0.0539 H       1  UNL1        0.0626
     30 H           0.9793    1.3230    2.7182 H       1  UNL1        0.2954
     31 H          -0.8935    1.8304   -0.0389 H       1  UNL1        0.0625
     32 H          -2.7215    2.8647   -1.2664 H       1  UNL1        0.0618
     33 H          -4.6409    1.5821   -1.8893 H       1  UNL1        0.0619
     34 H          -4.8262   -0.7574   -1.3279 H       1  UNL1        0.0654
@<TRIPOS>BOND
     1     1     2    1
     2     2     3   ar
     3     2    21   ar
     4     3     4    1
     5     3    14   ar
     6     4     5    1
     7     5     6   ar
     8     5    10   ar
     9     6     7   ar
    10     7     8   ar
    11     8     9   ar
    12     9    10   ar
    13    10    11    1
    14    11    12    2
    15    11    13    1
    16    14    15   ar
    17    14    19   ar
    18    15    16   ar
    19    16    17   ar
    20    17    18   ar
    21    18    19   ar
    22    19    20   ar
    23    20    21   ar
    24    21    22    2
    25     1    23    1
    26     1    24    1
    27     4    25    1
    28     6    26    1
    29     7    27    1
    30     8    28    1
    31     9    29    1
    32    13    30    1
    33    15    31    1
    34    16    32    1
    35    17    33    1
    36    18    34    1
@<TRIPOS>MOLECULE
../data/bude_mols_rdkit_confs_charged/molecule_33.pdb
 34 36 0 0 0
SMALL
GASTEIGER

@<TRIPOS>ATOM
      1  N1         0.2390    2.9250    0.8300 N.pl3   1  UNL1       -0.3510
      2  C1         1.1900    1.9700    0.4090 C.ar    1  UNL1        0.1323
      3  C2         0.9320    0.6250    0.4720 C.ar    1  UNL1        0.0701
      4  N2        -0.3450    0.1950    0.9810 N.pl3   1  UNL1       -0.3117
      5  C3        -1.4400    0.0180    0.1070 C.ar    1  UNL1        0.0455
      6  C4        -1.2640    0.2640   -1.2430 C.ar    1  UNL1       -0.0397
      7  C5        -2.3070    0.1020   -2.1160 C.ar    1  UNL1       -0.0600
      8  C6        -3.5430   -0.3100   -1.6540 C.ar    1  UNL1       -0.0609
      9  C7        -3.7280   -0.5570   -0.3230 C.ar    1  UNL1       -0.0460
     10  C8        -2.6620   -0.3890    0.5580 C.ar    1  UNL1        0.0799
     11  C9        -2.9360   -0.6730    1.9750 C.2     1  UNL1        0.3386
     12  O1        -2.0960   -0.5740    2.9010 O.2     1  UNL1       -0.2451
     13  O2        -4.2500   -1.0860    2.2970 O.3     1  UNL1       -0.4771
     14  C10        1.9100   -0.2310    0.0430 C.ar    1  UNL1        0.0405
     15  C11        1.6970   -1.5920    0.0870 C.ar    1  UNL1       -0.0492
     16  C12        2.6830   -2.4520   -0.3450 C.ar    1  UNL1       -0.0609
     17  C13        3.8820   -1.9790   -0.8210 C.ar    1  UNL1       -0.0582
     18  C14        4.1100   -0.6200   -0.8710 C.ar    1  UNL1       -0.0186
     19  C15        3.1330    0.2560   -0.4430 C.ar    1  UNL1        0.1409
     20  O3         3.3170    1.5480   -0.4760 O.2     1  UNL1       -0.4208
     21  C16        2.4230    2.4380   -0.0810 C.ar    1  UNL1        0.3601
     22  O4         2.6060    3.6700   -0.1170 O.2     1  UNL1       -0.2430
     23 H          -0.6336    2.6305    1.1780 H       1  UNL1        0.1426
     24 H           0.4485    3.8854    0.7756 H       1  UNL1        0.1426
     25 H          -0.4551    0.0234    1.9442 H       1  UNL1        0.1522
     26 H          -0.3432    0.5708   -1.5937 H       1  UNL1        0.0636
     27 H          -2.1697    0.2881   -3.1217 H       1  UNL1        0.0618
     28 H          -4.3264   -0.4311   -2.3148 H       1  UNL1        0.0618
     29 H          -4.6488   -0.8651    0.0264 H       1  UNL1        0.0626
     30 H          -4.8944   -1.1670    1.6216 H       1  UNL1        0.2954
     31 H           0.8028   -1.9653    0.4420 H       1  UNL1        0.0625
     32 H           2.5179   -3.4701   -0.3104 H       1  UNL1        0.0618
     33 H           4.6091   -2.6383   -1.1399 H       1  UNL1        0.0619
     34 H           5.0086   -0.2589   -1.2274 H       1  UNL1        0.0654
@<TRIPOS>BOND
     1     1     2    1
     2     2     3   ar
     3     2    21   ar
     4     3     4    1
     5     3    14   ar
     6     4     5    1
     7     5     6   ar
     8     5    10   ar
     9     6     7   ar
    10     7     8   ar
    11     8     9   ar
    12     9    10   ar
    13    10    11    1
    14    11    12    2
    15    11    13    1
    16    14    15   ar
    17    14    19   ar
    18    15    16   ar
    19    16    17   ar
    20    17    18   ar
    21    18    19   ar
    22    19    20   ar
    23    20    21   ar
    24    21    22    2
    25     1    23    1
    26     1    24    1
    27     4    25    1
    28     6    26    1
    29     7    27    1
    30     8    28    1
    31     9    29    1
    32    13    30    1
    33    15    31    1
    34    16    32    1
    35    17    33    1
    36    18    34    1
@<TRIPOS>MOLECULE
../data/bude_mols_rdkit_confs_charged/molecule_33.pdb
 34 36 0 0 0
SMALL
GASTEIGER

@<TRIPOS>ATOM
      1  N1         0.2000    2.8560   -0.9700 N.pl3   1  UNL1       -0.3510
      2  C1         1.1570    1.9240   -0.5200 C.ar    1  UNL1        0.1323
      3  C2         0.8460    0.5820   -0.5390 C.ar    1  UNL1        0.0701
      4  N2        -0.4320    0.1800   -1.0130 N.pl3   1  UNL1       -0.3117
      5  C3        -1.4910    0.0800   -0.0840 C.ar    1  UNL1        0.0455
      6  C4        -1.2490    0.3790    1.2750 C.ar    1  UNL1       -0.0397
      7  C5        -2.2110    0.3090    2.2410 C.ar    1  UNL1       -0.0600
      8  C6        -3.4660   -0.0710    1.8560 C.ar    1  UNL1       -0.0609
      9  C7        -3.7210   -0.3660    0.5420 C.ar    1  UNL1       -0.0460
     10  C8        -2.7620   -0.3020   -0.4520 C.ar    1  UNL1        0.0799
     11  C9        -3.1090   -0.6260   -1.8050 C.2     1  UNL1        0.3386
     12  O1        -4.3310   -0.9710   -2.0320 O.2     1  UNL1       -0.2451
     13  O2        -2.3340   -0.6290   -2.9170 O.3     1  UNL1       -0.4771
     14  C10        1.8050   -0.2940   -0.0920 C.ar    1  UNL1        0.0405
     15  C11        1.5200   -1.6360   -0.1010 C.ar    1  UNL1       -0.0492
     16  C12        2.4700   -2.5260    0.3430 C.ar    1  UNL1       -0.0609
     17  C13        3.7090   -2.1140    0.8010 C.ar    1  UNL1       -0.0582
     18  C14        4.0070   -0.7610    0.8140 C.ar    1  UNL1       -0.0186
     19  C15        3.0430    0.1170    0.3650 C.ar    1  UNL1        0.1409
     20  O3         3.2760    1.4070    0.3570 O.2     1  UNL1       -0.4208
     21  C16        2.4160    2.3010   -0.0520 C.ar    1  UNL1        0.3601
     22  O4         2.6700    3.5380   -0.0470 O.2     1  UNL1       -0.2430
     23 H          -0.6767    2.5448   -1.2921 H       1  UNL1        0.1426
     24 H           0.4083    3.8182   -0.9622 H       1  UNL1        0.1426
     25 H          -0.5756   -0.0237   -1.9654 H       1  UNL1        0.1522
     26 H          -0.2968    0.6648    1.5517 H       1  UNL1        0.0636
     27 H          -1.9985    0.5346    3.2253 H       1  UNL1        0.0618
     28 H          -4.2223   -0.1359    2.5552 H       1  UNL1        0.0618
     29 H          -4.6781   -0.6505    0.2811 H       1  UNL1        0.0626
     30 H          -1.4292   -0.3928   -2.8581 H       1  UNL1        0.2954
     31 H           0.6043   -1.9734   -0.4367 H       1  UNL1        0.0625
     32 H           2.2515   -3.5346    0.3343 H       1  UNL1        0.0618
     33 H           4.4018   -2.8052    1.1285 H       1  UNL1        0.0619
     34 H           4.9218   -0.4208    1.1492 H       1  UNL1        0.0654
@<TRIPOS>BOND
     1     1     2    1
     2     2     3   ar
     3     2    21   ar
     4     3     4    1
     5     3    14   ar
     6     4     5    1
     7     5     6   ar
     8     5    10   ar
     9     6     7   ar
    10     7     8   ar
    11     8     9   ar
    12     9    10   ar
    13    10    11    1
    14    11    12    2
    15    11    13    1
    16    14    15   ar
    17    14    19   ar
    18    15    16   ar
    19    16    17   ar
    20    17    18   ar
    21    18    19   ar
    22    19    20   ar
    23    20    21   ar
    24    21    22    2
    25     1    23    1
    26     1    24    1
    27     4    25    1
    28     6    26    1
    29     7    27    1
    30     8    28    1
    31     9    29    1
    32    13    30    1
    33    15    31    1
    34    16    32    1
    35    17    33    1
    36    18    34    1
