@<TRIPOS>MOLECULE
../data/bude_mols_rdkit_confs_charged/molecule_13.pdb
 30 32 0 0 0
SMALL
GASTEIGER

@<TRIPOS>ATOM
      1  C1         4.5620    1.5230    1.2620 C.3     1  UNL1       -0.0397
      2  C2         3.5770    0.7080    0.4670 C.ar    1  UNL1       -0.0516
      3  C3         3.7920    0.5340   -0.8840 C.ar    1  UNL1       -0.0589
      4  C4         2.8850   -0.2120   -1.5960 C.ar    1  UNL1       -0.0627
      5  C5         1.7750   -0.7830   -0.9840 C.ar    1  UNL1       -0.0761
      6  C6         1.5420   -0.6230    0.3490 C.ar    1  UNL1       -0.1290
      7  N1         0.4990   -1.2150    1.0130 N.pl3   1  UNL1       -0.5367
      8  S1        -1.0140   -0.9280    1.5530 S.O2    1  UNL1       -0.0569
      9  O1        -1.4730   -2.1560    2.3620 O.2     1  UNL1       -0.1841
     10  O2        -1.0240    0.2660    2.5390 O.2     1  UNL1       -0.1841
     11  C7        -2.2250   -0.5480    0.3810 C.ar    1  UNL1        0.1006
     12  C8        -1.9510   -0.5120   -0.9440 C.ar    1  UNL1       -0.0360
     13  C9        -2.9180   -0.2130   -1.8880 C.ar    1  UNL1       -0.0578
     14  C10       -4.1860    0.0510   -1.4240 C.ar    1  UNL1       -0.0334
     15  C11       -4.4620    0.0120   -0.0600 C.ar    1  UNL1        0.1017
     16  N2        -5.7360    0.2740    0.4430 N.ar    1  UNL1       -0.1907
     17  S2        -5.6360    0.1210    2.1370 S.2     1  UNL1        0.1165
     18  N3        -3.8560   -0.2990    2.1510 N.ar    1  UNL1       -0.1889
     19  C12       -3.5620   -0.2680    0.8380 C.ar    1  UNL1        0.1232
     20  C13        2.4860    0.1440    1.0510 C.ar    1  UNL1       -0.0732
     21 H           5.3400    1.8720    0.6156 H       1  UNL1        0.0278
     22 H           4.9857    0.9161    2.0347 H       1  UNL1        0.0278
     23 H           4.0604    2.3601    1.7007 H       1  UNL1        0.0278
     24 H           4.6130    0.9534   -1.3479 H       1  UNL1        0.0620
     25 H           3.0307   -0.3518   -2.6080 H       1  UNL1        0.0617
     26 H           1.1148   -1.3387   -1.5501 H       1  UNL1        0.0606
     27 H          -0.9898   -0.7141   -1.2607 H       1  UNL1        0.0637
     28 H          -2.6975   -0.1891   -2.8959 H       1  UNL1        0.0619
     29 H          -4.9384    0.2797   -2.0923 H       1  UNL1        0.0640
     30 H           2.3444    0.2871    2.0632 H       1  UNL1        0.0608
@<TRIPOS>UNITY_ATOM_ATTR
7 1
charge -1
@<TRIPOS>BOND
     1     1     2    1
     2     2     3   ar
     3     2    20   ar
     4     3     4   ar
     5     4     5   ar
     6     5     6   ar
     7     6     7    1
     8     6    20   ar
     9     7     8    1
    10     8     9    2
    11     8    10    2
    12     8    11    1
    13    11    12   ar
    14    11    19   ar
    15    12    13   ar
    16    13    14   ar
    17    14    15   ar
    18    15    16   ar
    19    15    19   ar
    20    16    17   ar
    21    17    18   ar
    22    18    19   ar
    23     1    21    1
    24     1    22    1
    25     1    23    1
    26     3    24    1
    27     4    25    1
    28     5    26    1
    29    12    27    1
    30    13    28    1
    31    14    29    1
    32    20    30    1
@<TRIPOS>MOLECULE
../data/bude_mols_rdkit_confs_charged/molecule_13.pdb
 30 32 0 0 0
SMALL
GASTEIGER

@<TRIPOS>ATOM
      1  C1         3.3720   -2.2390   -0.1040 C.3     1  UNL1       -0.0397
      2  C2         3.0360   -0.7870    0.0650 C.ar    1  UNL1       -0.0516
      3  C3         3.9730    0.0390    0.6090 C.ar    1  UNL1       -0.0589
      4  C4         3.6990    1.3820    0.7800 C.ar    1  UNL1       -0.0627
      5  C5         2.4950    1.9070    0.4120 C.ar    1  UNL1       -0.0761
      6  C6         1.5420    1.0460   -0.1440 C.ar    1  UNL1       -0.1290
      7  N1         0.2970    1.6050   -0.4930 N.pl3   1  UNL1       -0.5367
      8  S1        -0.9840    1.7530    0.6150 S.O2    1  UNL1       -0.0569
      9  O1        -1.4600    3.1680    0.7710 O.2     1  UNL1       -0.1841
     10  O2        -0.5130    1.2200    1.9550 O.2     1  UNL1       -0.1841
     11  C7        -2.3130    0.7460    0.1260 C.ar    1  UNL1        0.1006
     12  C8        -3.4650    1.3760   -0.3610 C.ar    1  UNL1       -0.0360
     13  C9        -4.5140    0.6470   -0.7890 C.ar    1  UNL1       -0.0578
     14  C10       -4.4290   -0.7440   -0.7370 C.ar    1  UNL1       -0.0334
     15  C11       -3.2750   -1.3350   -0.2490 C.ar    1  UNL1        0.1017
     16  N2        -3.1460   -2.7350   -0.1580 N.ar    1  UNL1       -0.1907
     17  S2        -1.6780   -3.0510    0.4780 S.2     1  UNL1        0.1165
     18  N3        -1.1240   -1.3230    0.6700 N.ar    1  UNL1       -0.1889
     19  C12       -2.2810   -0.6360    0.1570 C.ar    1  UNL1        0.1232
     20  C13        1.8220   -0.2660   -0.3070 C.ar    1  UNL1       -0.0732
     21 H           4.3650   -2.4190    0.2515 H       1  UNL1        0.0278
     22 H           3.3109   -2.5010   -1.1396 H       1  UNL1        0.0278
     23 H           2.6797   -2.8328    0.4556 H       1  UNL1        0.0278
     24 H           4.8897   -0.3397    0.8940 H       1  UNL1        0.0620
     25 H           4.4167    1.9981    1.1928 H       1  UNL1        0.0617
     26 H           2.2925    2.9108    0.5400 H       1  UNL1        0.0606
     27 H          -3.5107    2.4065   -0.3923 H       1  UNL1        0.0637
     28 H          -5.3640    1.1090   -1.1484 H       1  UNL1        0.0619
     29 H          -5.2175   -1.3270   -1.0587 H       1  UNL1        0.0640
     30 H           1.1092   -0.8882   -0.7192 H       1  UNL1        0.0608
@<TRIPOS>UNITY_ATOM_ATTR
7 1
charge -1
@<TRIPOS>BOND
     1     1     2    1
     2     2     3   ar
     3     2    20   ar
     4     3     4   ar
     5     4     5   ar
     6     5     6   ar
     7     6     7    1
     8     6    20   ar
     9     7     8    1
    10     8     9    2
    11     8    10    2
    12     8    11    1
    13    11    12   ar
    14    11    19   ar
    15    12    13   ar
    16    13    14   ar
    17    14    15   ar
    18    15    16   ar
    19    15    19   ar
    20    16    17   ar
    21    17    18   ar
    22    18    19   ar
    23     1    21    1
    24     1    22    1
    25     1    23    1
    26     3    24    1
    27     4    25    1
    28     5    26    1
    29    12    27    1
    30    13    28    1
    31    14    29    1
    32    20    30    1
@<TRIPOS>MOLECULE
../data/bude_mols_rdkit_confs_charged/molecule_13.pdb
 30 32 0 0 0
SMALL
GASTEIGER

@<TRIPOS>ATOM
      1  C1        -3.4170    2.0670   -0.6010 C.3     1  UNL1       -0.0397
      2  C2        -3.0040    0.6670   -0.3530 C.ar    1  UNL1       -0.0516
      3  C3        -3.7800   -0.1080    0.4650 C.ar    1  UNL1       -0.0589
      4  C4        -3.3860   -1.4110    0.6900 C.ar    1  UNL1       -0.0627
      5  C5        -2.2560   -1.9340    0.1230 C.ar    1  UNL1       -0.0761
      6  C6        -1.4450   -1.1480   -0.7220 C.ar    1  UNL1       -0.1290
      7  N1        -0.3100   -1.7860   -1.2060 N.pl3   1  UNL1       -0.5367
      8  S1         1.1700   -1.9100   -0.4290 S.O2    1  UNL1       -0.0569
      9  O1         2.1130   -2.8690   -1.1770 O.2     1  UNL1       -0.1841
     10  O2         0.8900   -2.6710    0.8930 O.2     1  UNL1       -0.1841
     11  C7         2.0330   -0.4750   -0.0870 C.ar    1  UNL1        0.1006
     12  C8         1.7260    0.7520   -0.5710 C.ar    1  UNL1       -0.0360
     13  C9         2.4510    1.9130   -0.3200 C.ar    1  UNL1       -0.0578
     14  C10        3.5610    1.7620    0.4870 C.ar    1  UNL1       -0.0334
     15  C11        3.9000    0.5220    0.9950 C.ar    1  UNL1        0.1017
     16  N2         5.0440    0.3300    1.8350 N.ar    1  UNL1       -0.1907
     17  S2         5.1020   -1.2850    2.2300 S.2     1  UNL1        0.1165
     18  N3         3.6230   -1.7850    1.3080 N.ar    1  UNL1       -0.1889
     19  C12        3.2120   -0.5320    0.7460 C.ar    1  UNL1        0.1232
     20  C13       -1.8420    0.1370   -0.9400 C.ar    1  UNL1       -0.0732
     21 H          -4.3209    2.2723   -0.0664 H       1  UNL1        0.0278
     22 H          -3.5819    2.2100   -1.6485 H       1  UNL1        0.0278
     23 H          -2.6467    2.7305   -0.2673 H       1  UNL1        0.0278
     24 H          -4.6351    0.2710    0.9010 H       1  UNL1        0.0620
     25 H          -3.9607   -2.0089    1.3042 H       1  UNL1        0.0617
     26 H          -1.9944   -2.9135    0.3155 H       1  UNL1        0.0606
     27 H           0.8907    0.8321   -1.1718 H       1  UNL1        0.0637
     28 H           2.1767    2.8275   -0.7117 H       1  UNL1        0.0619
     29 H           4.1435    2.5833    0.7132 H       1  UNL1        0.0640
     30 H          -1.2724    0.7393   -1.5546 H       1  UNL1        0.0608
@<TRIPOS>UNITY_ATOM_ATTR
7 1
charge -1
@<TRIPOS>BOND
     1     1     2    1
     2     2     3   ar
     3     2    20   ar
     4     3     4   ar
     5     4     5   ar
     6     5     6   ar
     7     6     7    1
     8     6    20   ar
     9     7     8    1
    10     8     9    2
    11     8    10    2
    12     8    11    1
    13    11    12   ar
    14    11    19   ar
    15    12    13   ar
    16    13    14   ar
    17    14    15   ar
    18    15    16   ar
    19    15    19   ar
    20    16    17   ar
    21    17    18   ar
    22    18    19   ar
    23     1    21    1
    24     1    22    1
    25     1    23    1
    26     3    24    1
    27     4    25    1
    28     5    26    1
    29    12    27    1
    30    13    28    1
    31    14    29    1
    32    20    30    1
@<TRIPOS>MOLECULE
../data/bude_mols_rdkit_confs_charged/molecule_13.pdb
 30 32 0 0 0
SMALL
GASTEIGER

@<TRIPOS>ATOM
      1  C1         4.6570   -0.4880    0.9490 C.3     1  UNL1       -0.0397
      2  C2         3.5350   -0.0310    0.0900 C.ar    1  UNL1       -0.0516
      3  C3         3.5730   -0.2910   -1.2630 C.ar    1  UNL1       -0.0589
      4  C4         2.5240    0.1390   -2.0490 C.ar    1  UNL1       -0.0627
      5  C5         1.4460    0.8220   -1.4990 C.ar    1  UNL1       -0.0761
      6  C6         1.3730    1.0950   -0.1680 C.ar    1  UNL1       -0.1290
      7  N1         0.3660    1.8120    0.4920 N.pl3   1  UNL1       -0.5367
      8  S1        -0.9610    1.2320    1.2780 S.O2    1  UNL1       -0.0569
      9  O1        -0.4700    0.3030    2.4160 O.2     1  UNL1       -0.1841
     10  O2        -1.6620    2.3680    2.0370 O.2     1  UNL1       -0.1841
     11  C7        -2.1470    0.3360    0.3810 C.ar    1  UNL1        0.1006
     12  C8        -2.1570    0.1530   -0.9760 C.ar    1  UNL1       -0.0360
     13  C9        -3.1470   -0.5590   -1.6540 C.ar    1  UNL1       -0.0578
     14  C10       -4.1700   -1.1090   -0.9310 C.ar    1  UNL1       -0.0334
     15  C11       -4.1680   -0.9240    0.4640 C.ar    1  UNL1        0.1017
     16  N2        -5.1840   -1.4620    1.2330 N.ar    1  UNL1       -0.1907
     17  S2        -4.8570   -1.0440    2.8600 S.2     1  UNL1        0.1165
     18  N3        -3.3200   -0.1280    2.4690 N.ar    1  UNL1       -0.1889
     19  C12       -3.2390   -0.2570    1.0970 C.ar    1  UNL1        0.1232
     20  C13        2.4660    0.6400    0.6090 C.ar    1  UNL1       -0.0732
     21 H           5.3859   -0.9892    0.3470 H       1  UNL1        0.0278
     22 H           4.2853   -1.1610    1.6932 H       1  UNL1        0.0278
     23 H           5.1083    0.3570    1.4258 H       1  UNL1        0.0278
     24 H           4.3701   -0.7971   -1.6796 H       1  UNL1        0.0620
     25 H           2.5401   -0.0499   -3.0634 H       1  UNL1        0.0617
     26 H           0.6795    1.1307   -2.1172 H       1  UNL1        0.0606
     27 H          -1.3889    0.5650   -1.5285 H       1  UNL1        0.0637
     28 H          -3.1084   -0.6685   -2.6795 H       1  UNL1        0.0619
     29 H          -4.9209   -1.6437   -1.3949 H       1  UNL1        0.0640
     30 H           2.4534    0.8262    1.6240 H       1  UNL1        0.0608
@<TRIPOS>UNITY_ATOM_ATTR
7 1
charge -1
@<TRIPOS>BOND
     1     1     2    1
     2     2     3   ar
     3     2    20   ar
     4     3     4   ar
     5     4     5   ar
     6     5     6   ar
     7     6     7    1
     8     6    20   ar
     9     7     8    1
    10     8     9    2
    11     8    10    2
    12     8    11    1
    13    11    12   ar
    14    11    19   ar
    15    12    13   ar
    16    13    14   ar
    17    14    15   ar
    18    15    16   ar
    19    15    19   ar
    20    16    17   ar
    21    17    18   ar
    22    18    19   ar
    23     1    21    1
    24     1    22    1
    25     1    23    1
    26     3    24    1
    27     4    25    1
    28     5    26    1
    29    12    27    1
    30    13    28    1
    31    14    29    1
    32    20    30    1
@<TRIPOS>MOLECULE
../data/bude_mols_rdkit_confs_charged/molecule_13.pdb
 30 32 0 0 0
SMALL
GASTEIGER

@<TRIPOS>ATOM
      1  C1         4.6630    0.1240   -0.1020 C.3     1  UNL1       -0.0397
      2  C2         3.2750   -0.4110   -0.1200 C.ar    1  UNL1       -0.0516
      3  C3         2.8410   -1.1840   -1.1770 C.ar    1  UNL1       -0.0589
      4  C4         1.5520   -1.6710   -1.1740 C.ar    1  UNL1       -0.0627
      5  C5         0.6940   -1.3830   -0.1100 C.ar    1  UNL1       -0.0761
      6  C6         1.1100   -0.6100    0.9590 C.ar    1  UNL1       -0.1290
      7  N1         0.1950   -0.3630    1.9900 N.pl3   1  UNL1       -0.5367
      8  S1        -0.8850    0.9690    2.0460 S.O2    1  UNL1       -0.0569
      9  O1        -1.7740    0.8430    3.2750 O.2     1  UNL1       -0.1841
     10  O2        -0.2220    2.2890    2.1280 O.2     1  UNL1       -0.1841
     11  C7        -1.9500    0.8580    0.6640 C.ar    1  UNL1        0.1006
     12  C8        -1.9240    1.9270   -0.2380 C.ar    1  UNL1       -0.0360
     13  C9        -2.7730    1.8110   -1.3140 C.ar    1  UNL1       -0.0578
     14  C10       -3.5810    0.7380   -1.4970 C.ar    1  UNL1       -0.0334
     15  C11       -3.5740   -0.3350   -0.5470 C.ar    1  UNL1        0.1017
     16  N2        -4.3820   -1.4260   -0.7120 N.ar    1  UNL1       -0.1907
     17  S2        -3.9370   -2.4050    0.7630 S.2     1  UNL1        0.1165
     18  N3        -2.8300   -1.3490    1.3750 N.ar    1  UNL1       -0.1889
     19  C12       -2.7750   -0.2130    0.4550 C.ar    1  UNL1        0.1232
     20  C13        2.3960   -0.1400    0.9300 C.ar    1  UNL1       -0.0732
     21 H           5.1776   -0.1895   -0.9862 H       1  UNL1        0.0278
     22 H           5.1770   -0.2467    0.7602 H       1  UNL1        0.0278
     23 H           4.6328    1.1930   -0.0670 H       1  UNL1        0.0278
     24 H           3.4758   -1.3956   -1.9627 H       1  UNL1        0.0620
     25 H           1.2194   -2.2505   -1.9605 H       1  UNL1        0.0617
     26 H          -0.2689   -1.7541   -0.1217 H       1  UNL1        0.0606
     27 H          -1.3103    2.7460   -0.1053 H       1  UNL1        0.0637
     28 H          -2.7958    2.5721   -2.0106 H       1  UNL1        0.0619
     29 H          -4.2013    0.6938   -2.3206 H       1  UNL1        0.0640
     30 H           2.7290    0.4385    1.7170 H       1  UNL1        0.0608
@<TRIPOS>UNITY_ATOM_ATTR
7 1
charge -1
@<TRIPOS>BOND
     1     1     2    1
     2     2     3   ar
     3     2    20   ar
     4     3     4   ar
     5     4     5   ar
     6     5     6   ar
     7     6     7    1
     8     6    20   ar
     9     7     8    1
    10     8     9    2
    11     8    10    2
    12     8    11    1
    13    11    12   ar
    14    11    19   ar
    15    12    13   ar
    16    13    14   ar
    17    14    15   ar
    18    15    16   ar
    19    15    19   ar
    20    16    17   ar
    21    17    18   ar
    22    18    19   ar
    23     1    21    1
    24     1    22    1
    25     1    23    1
    26     3    24    1
    27     4    25    1
    28     5    26    1
    29    12    27    1
    30    13    28    1
    31    14    29    1
    32    20    30    1
@<TRIPOS>MOLECULE
../data/bude_mols_rdkit_confs_charged/molecule_13.pdb
 30 32 0 0 0
SMALL
GASTEIGER

@<TRIPOS>ATOM
      1  C1         4.4480   -1.0110    0.3100 C.3     1  UNL1       -0.0397
      2  C2         3.1500   -0.6150   -0.3020 C.ar    1  UNL1       -0.0516
      3  C3         2.5930   -1.3600   -1.3120 C.ar    1  UNL1       -0.0589
      4  C4         1.3990   -0.9960   -1.8740 C.ar    1  UNL1       -0.0627
      5  C5         0.7530    0.1170   -1.4310 C.ar    1  UNL1       -0.0761
      6  C6         1.2660    0.9200   -0.4070 C.ar    1  UNL1       -0.1290
      7  N1         0.5640    2.0730    0.0280 N.pl3   1  UNL1       -0.5367
      8  S1        -0.5850    1.8820    1.3160 S.O2    1  UNL1       -0.0569
      9  O1        -1.2070    3.1980    1.6790 O.2     1  UNL1       -0.1841
     10  O2         0.1240    1.3530    2.4970 O.2     1  UNL1       -0.1841
     11  C7        -1.8260    0.7760    0.7660 C.ar    1  UNL1        0.1006
     12  C8        -1.9970   -0.3810    1.4840 C.ar    1  UNL1       -0.0360
     13  C9        -2.9520   -1.2860    1.1030 C.ar    1  UNL1       -0.0578
     14  C10       -3.7040   -0.9960    0.0100 C.ar    1  UNL1       -0.0334
     15  C11       -3.5410    0.1860   -0.7380 C.ar    1  UNL1        0.1017
     16  N2        -4.2560    0.4790   -1.7900 N.ar    1  UNL1       -0.1907
     17  S2        -3.6720    2.0700   -2.3780 S.2     1  UNL1        0.1165
     18  N3        -2.4780    2.1590   -1.0770 N.ar    1  UNL1       -0.1889
     19  C12       -2.6090    1.0720   -0.3670 C.ar    1  UNL1        0.1232
     20  C13        2.4670    0.5270    0.1370 C.ar    1  UNL1       -0.0732
     21 H           4.8062   -1.9033   -0.1594 H       1  UNL1        0.0278
     22 H           4.3096   -1.1891    1.3559 H       1  UNL1        0.0278
     23 H           5.1612   -0.2252    0.1734 H       1  UNL1        0.0278
     24 H           3.0801   -2.2041   -1.6514 H       1  UNL1        0.0620
     25 H           0.9896   -1.5643   -2.6319 H       1  UNL1        0.0617
     26 H          -0.1461    0.3774   -1.8655 H       1  UNL1        0.0606
     27 H          -1.4070   -0.5689    2.3096 H       1  UNL1        0.0637
     28 H          -3.0957   -2.1614    1.6304 H       1  UNL1        0.0619
     29 H          -4.4264   -1.6712   -0.2853 H       1  UNL1        0.0640
     30 H           2.8793    1.0931    0.8950 H       1  UNL1        0.0608
@<TRIPOS>UNITY_ATOM_ATTR
7 1
charge -1
@<TRIPOS>BOND
     1     1     2    1
     2     2     3   ar
     3     2    20   ar
     4     3     4   ar
     5     4     5   ar
     6     5     6   ar
     7     6     7    1
     8     6    20   ar
     9     7     8    1
    10     8     9    2
    11     8    10    2
    12     8    11    1
    13    11    12   ar
    14    11    19   ar
    15    12    13   ar
    16    13    14   ar
    17    14    15   ar
    18    15    16   ar
    19    15    19   ar
    20    16    17   ar
    21    17    18   ar
    22    18    19   ar
    23     1    21    1
    24     1    22    1
    25     1    23    1
    26     3    24    1
    27     4    25    1
    28     5    26    1
    29    12    27    1
    30    13    28    1
    31    14    29    1
    32    20    30    1
@<TRIPOS>MOLECULE
../data/bude_mols_rdkit_confs_charged/molecule_13.pdb
 30 32 0 0 0
SMALL
GASTEIGER

@<TRIPOS>ATOM
      1  C1        -2.0850    1.1140    2.3590 C.3     1  UNL1       -0.0397
      2  C2        -2.2570    0.3910    1.0720 C.ar    1  UNL1       -0.0516
      3  C3        -3.3440    0.6730    0.2730 C.ar    1  UNL1       -0.0589
      4  C4        -3.4800   -0.0140   -0.9180 C.ar    1  UNL1       -0.0627
      5  C5        -2.5620   -0.9670   -1.3250 C.ar    1  UNL1       -0.0761
      6  C6        -1.4740   -1.2490   -0.5260 C.ar    1  UNL1       -0.1290
      7  N1        -0.4970   -2.2340   -0.9150 N.pl3   1  UNL1       -0.5367
      8  S1         0.8360   -1.6150   -1.8550 S.O2    1  UNL1       -0.0569
      9  O1         1.7550   -2.7950   -2.1080 O.2     1  UNL1       -0.1841
     10  O2         0.3160   -1.0400   -3.1140 O.2     1  UNL1       -0.1841
     11  C7         1.7430   -0.4380   -0.9700 C.ar    1  UNL1        0.1006
     12  C8         1.8610    0.8380   -1.4470 C.ar    1  UNL1       -0.0360
     13  C9         2.5790    1.8180   -0.7730 C.ar    1  UNL1       -0.0578
     14  C10        3.1790    1.4650    0.4090 C.ar    1  UNL1       -0.0334
     15  C11        3.0570    0.1450    0.9050 C.ar    1  UNL1        0.1017
     16  N2         3.6810   -0.2220    2.1340 N.ar    1  UNL1       -0.1907
     17  S2         3.2020   -1.9690    2.2590 S.2     1  UNL1        0.1165
     18  N3         2.3050   -2.0440    0.8110 N.ar    1  UNL1       -0.1889
     19  C12        2.3820   -0.7570    0.2580 C.ar    1  UNL1        0.1232
     20  C13       -1.3390   -0.5570    0.6730 C.ar    1  UNL1       -0.0732
     21 H          -2.8925    1.8034    2.4915 H       1  UNL1        0.0278
     22 H          -1.1581    1.6485    2.3467 H       1  UNL1        0.0278
     23 H          -2.0805    0.4107    3.1654 H       1  UNL1        0.0278
     24 H          -4.0396    1.3803    0.5575 H       1  UNL1        0.0620
     25 H          -4.2910    0.1896   -1.5229 H       1  UNL1        0.0617
     26 H          -2.6911   -1.4632   -2.2206 H       1  UNL1        0.0606
     27 H           1.4010    1.0814   -2.3382 H       1  UNL1        0.0637
     28 H           2.6580    2.7763   -1.1478 H       1  UNL1        0.0619
     29 H           3.7217    2.1649    0.9388 H       1  UNL1        0.0640
     30 H          -0.5295   -0.7587    1.2805 H       1  UNL1        0.0608
@<TRIPOS>UNITY_ATOM_ATTR
7 1
charge -1
@<TRIPOS>BOND
     1     1     2    1
     2     2     3   ar
     3     2    20   ar
     4     3     4   ar
     5     4     5   ar
     6     5     6   ar
     7     6     7    1
     8     6    20   ar
     9     7     8    1
    10     8     9    2
    11     8    10    2
    12     8    11    1
    13    11    12   ar
    14    11    19   ar
    15    12    13   ar
    16    13    14   ar
    17    14    15   ar
    18    15    16   ar
    19    15    19   ar
    20    16    17   ar
    21    17    18   ar
    22    18    19   ar
    23     1    21    1
    24     1    22    1
    25     1    23    1
    26     3    24    1
    27     4    25    1
    28     5    26    1
    29    12    27    1
    30    13    28    1
    31    14    29    1
    32    20    30    1
@<TRIPOS>MOLECULE
../data/bude_mols_rdkit_confs_charged/molecule_13.pdb
 30 32 0 0 0
SMALL
GASTEIGER

@<TRIPOS>ATOM
      1  C1        -4.4340   -0.8430    1.0330 C.3     1  UNL1       -0.0397
      2  C2        -3.2630   -0.5420    0.1520 C.ar    1  UNL1       -0.0516
      3  C3        -3.0290   -1.2900   -0.9820 C.ar    1  UNL1       -0.0589
      4  C4        -1.9450   -1.0050   -1.7890 C.ar    1  UNL1       -0.0627
      5  C5        -1.1090    0.0220   -1.4550 C.ar    1  UNL1       -0.0761
      6  C6        -1.3260    0.7940   -0.3110 C.ar    1  UNL1       -0.1290
      7  N1        -0.5410    1.8600    0.0900 N.pl3   1  UNL1       -0.5367
      8  S1         0.7940    1.9640    1.1030 S.O2    1  UNL1       -0.0569
      9  O1         1.2110    3.4290    1.1560 O.2     1  UNL1       -0.1841
     10  O2         0.5020    1.6000    2.5340 O.2     1  UNL1       -0.1841
     11  C7         2.1280    1.0240    0.5010 C.ar    1  UNL1        0.1006
     12  C8         3.2820    1.6550    0.0960 C.ar    1  UNL1       -0.0360
     13  C9         4.3580    0.9400   -0.4060 C.ar    1  UNL1       -0.0578
     14  C10        4.2470   -0.4290   -0.4910 C.ar    1  UNL1       -0.0334
     15  C11        3.0690   -1.0650   -0.0760 C.ar    1  UNL1        0.1017
     16  N2         2.9330   -2.4480   -0.1430 N.ar    1  UNL1       -0.1907
     17  S2         1.3520   -2.7780    0.4730 S.2     1  UNL1        0.1165
     18  N3         0.9170   -1.1200    0.7970 N.ar    1  UNL1       -0.1889
     19  C12        2.0480   -0.3820    0.4000 C.ar    1  UNL1        0.1232
     20  C13       -2.4290    0.4870    0.4920 C.ar    1  UNL1       -0.0732
     21 H          -4.9807   -1.6696    0.6296 H       1  UNL1        0.0278
     22 H          -5.0713    0.0150    1.0847 H       1  UNL1        0.0278
     23 H          -4.0876   -1.0897    2.0149 H       1  UNL1        0.0278
     24 H          -3.6650   -2.0644   -1.2284 H       1  UNL1        0.0620
     25 H          -1.7680   -1.5640   -2.6382 H       1  UNL1        0.0617
     26 H          -0.3000    0.2322   -2.0603 H       1  UNL1        0.0606
     27 H           3.3476    2.6824    0.1676 H       1  UNL1        0.0637
     28 H           5.2194    1.4214   -0.7080 H       1  UNL1        0.0619
     29 H           5.0319   -0.9879   -0.8607 H       1  UNL1        0.0640
     30 H          -2.6142    1.0389    1.3441 H       1  UNL1        0.0608
@<TRIPOS>UNITY_ATOM_ATTR
7 1
charge -1
@<TRIPOS>BOND
     1     1     2    1
     2     2     3   ar
     3     2    20   ar
     4     3     4   ar
     5     4     5   ar
     6     5     6   ar
     7     6     7    1
     8     6    20   ar
     9     7     8    1
    10     8     9    2
    11     8    10    2
    12     8    11    1
    13    11    12   ar
    14    11    19   ar
    15    12    13   ar
    16    13    14   ar
    17    14    15   ar
    18    15    16   ar
    19    15    19   ar
    20    16    17   ar
    21    17    18   ar
    22    18    19   ar
    23     1    21    1
    24     1    22    1
    25     1    23    1
    26     3    24    1
    27     4    25    1
    28     5    26    1
    29    12    27    1
    30    13    28    1
    31    14    29    1
    32    20    30    1
@<TRIPOS>MOLECULE
../data/bude_mols_rdkit_confs_charged/molecule_13.pdb
 30 32 0 0 0
SMALL
GASTEIGER

@<TRIPOS>ATOM
      1  C1         5.0450   -0.5120    0.0900 C.3     1  UNL1       -0.0397
      2  C2         3.7030    0.1690    0.1440 C.ar    1  UNL1       -0.0516
      3  C3         3.6080    1.2850    0.9450 C.ar    1  UNL1       -0.0589
      4  C4         2.3830    1.9030    0.9900 C.ar    1  UNL1       -0.0627
      5  C5         1.3080    1.4180    0.2630 C.ar    1  UNL1       -0.0761
      6  C6         1.3900    0.3090   -0.5370 C.ar    1  UNL1       -0.1290
      7  N1         0.3430   -0.2240   -1.3220 N.pl3   1  UNL1       -0.5367
      8  S1        -0.7280   -1.4530   -0.8100 S.O2    1  UNL1       -0.0569
      9  O1        -0.6750   -2.6500   -1.7210 O.2     1  UNL1       -0.1841
     10  O2        -0.2990   -1.9310    0.5770 O.2     1  UNL1       -0.1841
     11  C7        -2.3370   -0.8410   -0.6560 C.ar    1  UNL1        0.1006
     12  C8        -3.2810   -1.2950   -1.5560 C.ar    1  UNL1       -0.0360
     13  C9        -4.5820   -0.8350   -1.5190 C.ar    1  UNL1       -0.0578
     14  C10       -4.9090    0.1070   -0.5390 C.ar    1  UNL1       -0.0334
     15  C11       -3.9300    0.5280    0.3360 C.ar    1  UNL1        0.1017
     16  N2        -4.2160    1.4740    1.3620 N.ar    1  UNL1       -0.1907
     17  S2        -2.8070    1.7310    2.2350 S.2     1  UNL1        0.1165
     18  N3        -1.7800    0.5730    1.2500 N.ar    1  UNL1       -0.1889
     19  C12       -2.7300    0.0840    0.2780 C.ar    1  UNL1        0.1232
     20  C13        2.6480   -0.3170   -0.5770 C.ar    1  UNL1       -0.0732
     21 H           5.7364    0.0121    0.7162 H       1  UNL1        0.0278
     22 H           5.4051   -0.5112   -0.9176 H       1  UNL1        0.0278
     23 H           4.9471   -1.5208    0.4330 H       1  UNL1        0.0278
     24 H           4.4148    1.6381    1.4829 H       1  UNL1        0.0620
     25 H           2.2607    2.7438    1.5758 H       1  UNL1        0.0617
     26 H           0.4054    1.9142    0.3270 H       1  UNL1        0.0606
     27 H          -3.0091   -1.9902   -2.2686 H       1  UNL1        0.0637
     28 H          -5.2881   -1.1743   -2.1908 H       1  UNL1        0.0619
     29 H          -5.8683    0.4815   -0.4715 H       1  UNL1        0.0640
     30 H           2.7774   -1.1581   -1.1608 H       1  UNL1        0.0608
@<TRIPOS>UNITY_ATOM_ATTR
7 1
charge -1
@<TRIPOS>BOND
     1     1     2    1
     2     2     3   ar
     3     2    20   ar
     4     3     4   ar
     5     4     5   ar
     6     5     6   ar
     7     6     7    1
     8     6    20   ar
     9     7     8    1
    10     8     9    2
    11     8    10    2
    12     8    11    1
    13    11    12   ar
    14    11    19   ar
    15    12    13   ar
    16    13    14   ar
    17    14    15   ar
    18    15    16   ar
    19    15    19   ar
    20    16    17   ar
    21    17    18   ar
    22    18    19   ar
    23     1    21    1
    24     1    22    1
    25     1    23    1
    26     3    24    1
    27     4    25    1
    28     5    26    1
    29    12    27    1
    30    13    28    1
    31    14    29    1
    32    20    30    1
@<TRIPOS>MOLECULE
../data/bude_mols_rdkit_confs_charged/molecule_13.pdb
 30 32 0 0 0
SMALL
GASTEIGER

@<TRIPOS>ATOM
      1  C1         3.1710    1.6050    0.2780 C.3     1  UNL1       -0.0397
      2  C2         2.6730    0.2030    0.3190 C.ar    1  UNL1       -0.0516
      3  C3         3.3020   -0.7030    1.1640 C.ar    1  UNL1       -0.0589
      4  C4         2.8600   -1.9990    1.2170 C.ar    1  UNL1       -0.0627
      5  C5         1.7920   -2.4060    0.4350 C.ar    1  UNL1       -0.0761
      6  C6         1.1360   -1.5220   -0.4250 C.ar    1  UNL1       -0.1290
      7  N1         0.0700   -1.8600   -1.2290 N.pl3   1  UNL1       -0.5367
      8  S1        -1.5890   -1.8720   -1.0370 S.O2    1  UNL1       -0.0569
      9  O1        -2.0790   -2.8730   -0.0170 O.2     1  UNL1       -0.1841
     10  O2        -2.1940   -2.3260   -2.3640 O.2     1  UNL1       -0.1841
     11  C7        -2.1880   -0.2840   -0.7140 C.ar    1  UNL1        0.1006
     12  C8        -3.0020    0.3360   -1.6320 C.ar    1  UNL1       -0.0360
     13  C9        -3.4730    1.6120   -1.4020 C.ar    1  UNL1       -0.0578
     14  C10       -3.1000    2.2320   -0.2320 C.ar    1  UNL1       -0.0334
     15  C11       -2.2630    1.5740    0.6940 C.ar    1  UNL1        0.1017
     16  N2        -1.9080    2.2350    1.8890 N.ar    1  UNL1       -0.1907
     17  S2        -0.8920    1.0090    2.6850 S.2     1  UNL1        0.1165
     18  N3        -1.0100   -0.2250    1.4340 N.ar    1  UNL1       -0.1889
     19  C12       -1.8430    0.3840    0.4480 C.ar    1  UNL1        0.1232
     20  C13        1.6270   -0.2250   -0.4370 C.ar    1  UNL1       -0.0732
     21 H           3.9956    1.7104    0.9516 H       1  UNL1        0.0278
     22 H           2.3857    2.2711    0.5686 H       1  UNL1        0.0278
     23 H           3.4897    1.8414   -0.7157 H       1  UNL1        0.0278
     24 H           4.0975   -0.4017    1.7483 H       1  UNL1        0.0620
     25 H           3.3253   -2.6750    1.8427 H       1  UNL1        0.0617
     26 H           1.4731   -3.3860    0.4889 H       1  UNL1        0.0606
     27 H          -3.2628   -0.1571   -2.5002 H       1  UNL1        0.0637
     28 H          -4.0848    2.0857   -2.0849 H       1  UNL1        0.0619
     29 H          -3.4353    3.1868   -0.0297 H       1  UNL1        0.0640
     30 H           1.1692    0.4590   -1.0595 H       1  UNL1        0.0608
@<TRIPOS>UNITY_ATOM_ATTR
7 1
charge -1
@<TRIPOS>BOND
     1     1     2    1
     2     2     3   ar
     3     2    20   ar
     4     3     4   ar
     5     4     5   ar
     6     5     6   ar
     7     6     7    1
     8     6    20   ar
     9     7     8    1
    10     8     9    2
    11     8    10    2
    12     8    11    1
    13    11    12   ar
    14    11    19   ar
    15    12    13   ar
    16    13    14   ar
    17    14    15   ar
    18    15    16   ar
    19    15    19   ar
    20    16    17   ar
    21    17    18   ar
    22    18    19   ar
    23     1    21    1
    24     1    22    1
    25     1    23    1
    26     3    24    1
    27     4    25    1
    28     5    26    1
    29    12    27    1
    30    13    28    1
    31    14    29    1
    32    20    30    1
@<TRIPOS>MOLECULE
../data/bude_mols_rdkit_confs_charged/molecule_13.pdb
 30 32 0 0 0
SMALL
GASTEIGER

@<TRIPOS>ATOM
      1  C1         3.3800   -2.1980   -0.4660 C.3     1  UNL1       -0.0397
      2  C2         3.0190   -0.7820   -0.2050 C.ar    1  UNL1       -0.0516
      3  C3         3.7550    0.2320   -0.7880 C.ar    1  UNL1       -0.0589
      4  C4         3.4150    1.5470   -0.5430 C.ar    1  UNL1       -0.0627
      5  C5         2.3660    1.8140    0.2650 C.ar    1  UNL1       -0.0761
      6  C6         1.5650    0.8340    0.8970 C.ar    1  UNL1       -0.1290
      7  N1         0.4820    1.2330    1.6910 N.pl3   1  UNL1       -0.5367
      8  S1        -1.0520    1.5880    1.1800 S.O2    1  UNL1       -0.0569
      9  O1        -0.9920    2.7770    0.2070 O.2     1  UNL1       -0.1841
     10  O2        -1.9140    2.1520    2.3390 O.2     1  UNL1       -0.1841
     11  C7        -2.0040    0.3730    0.4320 C.ar    1  UNL1        0.1006
     12  C8        -1.6620   -0.9320    0.3780 C.ar    1  UNL1       -0.0360
     13  C9        -2.4940   -1.8670   -0.2150 C.ar    1  UNL1       -0.0578
     14  C10       -3.6840   -1.4320   -0.7510 C.ar    1  UNL1       -0.0334
     15  C11       -4.0180   -0.0750   -0.6830 C.ar    1  UNL1        0.1017
     16  N2        -5.2560    0.4380   -1.2300 N.ar    1  UNL1       -0.1907
     17  S2        -5.2810    2.0710   -0.9550 S.2     1  UNL1        0.1165
     18  N3        -3.6690    2.1620   -0.1090 N.ar    1  UNL1       -0.1889
     19  C12       -3.2370    0.7750   -0.1310 C.ar    1  UNL1        0.1232
     20  C13        1.9430   -0.4520    0.6240 C.ar    1  UNL1       -0.0732
     21 H           4.2257   -2.2357   -1.1205 H       1  UNL1        0.0278
     22 H           2.5524   -2.6986   -0.9235 H       1  UNL1        0.0278
     23 H           3.6222   -2.6804    0.4578 H       1  UNL1        0.0278
     24 H           4.5533    0.0075   -1.4023 H       1  UNL1        0.0620
     25 H           3.9546    2.3155   -0.9711 H       1  UNL1        0.0617
     26 H           2.1318    2.8049    0.4335 H       1  UNL1        0.0606
     27 H          -0.7648   -1.2382    0.7858 H       1  UNL1        0.0637
     28 H          -2.2284   -2.8635   -0.2538 H       1  UNL1        0.0619
     29 H          -4.3266   -2.1027   -1.2006 H       1  UNL1        0.0640
     30 H           1.4044   -1.2204    1.0535 H       1  UNL1        0.0608
@<TRIPOS>UNITY_ATOM_ATTR
7 1
charge -1
@<TRIPOS>BOND
     1     1     2    1
     2     2     3   ar
     3     2    20   ar
     4     3     4   ar
     5     4     5   ar
     6     5     6   ar
     7     6     7    1
     8     6    20   ar
     9     7     8    1
    10     8     9    2
    11     8    10    2
    12     8    11    1
    13    11    12   ar
    14    11    19   ar
    15    12    13   ar
    16    13    14   ar
    17    14    15   ar
    18    15    16   ar
    19    15    19   ar
    20    16    17   ar
    21    17    18   ar
    22    18    19   ar
    23     1    21    1
    24     1    22    1
    25     1    23    1
    26     3    24    1
    27     4    25    1
    28     5    26    1
    29    12    27    1
    30    13    28    1
    31    14    29    1
    32    20    30    1
@<TRIPOS>MOLECULE
../data/bude_mols_rdkit_confs_charged/molecule_13.pdb
 30 32 0 0 0
SMALL
GASTEIGER

@<TRIPOS>ATOM
      1  C1         5.0620   -0.1100    0.1630 C.3     1  UNL1       -0.0397
      2  C2         3.6730    0.4270    0.3050 C.ar    1  UNL1       -0.0516
      3  C3         3.4990    1.7810    0.1260 C.ar    1  UNL1       -0.0589
      4  C4         2.2230    2.2730    0.2570 C.ar    1  UNL1       -0.0627
      5  C5         1.1530    1.4230    0.5600 C.ar    1  UNL1       -0.0761
      6  C6         1.3250    0.0880    0.7360 C.ar    1  UNL1       -0.1290
      7  N1         0.2700   -0.7810    1.0680 N.pl3   1  UNL1       -0.5367
      8  S1        -0.6210   -1.6290   -0.1130 S.O2    1  UNL1       -0.0569
      9  O1         0.0610   -1.3620   -1.4500 O.2     1  UNL1       -0.1841
     10  O2        -0.6000   -3.1190    0.1480 O.2     1  UNL1       -0.1841
     11  C7        -2.2650   -1.1130   -0.2710 C.ar    1  UNL1        0.1006
     12  C8        -3.2870   -1.9600    0.1190 C.ar    1  UNL1       -0.0360
     13  C9        -4.5830   -1.5570    0.0260 C.ar    1  UNL1       -0.0578
     14  C10       -4.8780   -0.3110   -0.4550 C.ar    1  UNL1       -0.0334
     15  C11       -3.8350    0.5120   -0.8370 C.ar    1  UNL1        0.1017
     16  N2        -4.0960    1.8320   -1.3670 N.ar    1  UNL1       -0.1907
     17  S2        -2.6440    2.5140   -1.7300 S.2     1  UNL1        0.1165
     18  N3        -1.6070    1.1150   -1.2120 N.ar    1  UNL1       -0.1889
     19  C12       -2.6060    0.1530   -0.7580 C.ar    1  UNL1        0.1232
     20  C13        2.6190   -0.4110    0.6030 C.ar    1  UNL1       -0.0732
     21 H           5.7324    0.6914   -0.0675 H       1  UNL1        0.0278
     22 H           5.0860   -0.8330   -0.6254 H       1  UNL1        0.0278
     23 H           5.3611   -0.5725    1.0804 H       1  UNL1        0.0278
     24 H           4.2938    2.4003   -0.0972 H       1  UNL1        0.0620
     25 H           2.0511    3.2827    0.1303 H       1  UNL1        0.0617
     26 H           0.2060    1.8227    0.6523 H       1  UNL1        0.0606
     27 H          -3.0655   -2.9005    0.4816 H       1  UNL1        0.0637
     28 H          -5.3431   -2.1910    0.3182 H       1  UNL1        0.0619
     29 H          -5.8567    0.0074   -0.5310 H       1  UNL1        0.0640
     30 H           2.7910   -1.4207    0.7291 H       1  UNL1        0.0608
@<TRIPOS>UNITY_ATOM_ATTR
7 1
charge -1
@<TRIPOS>BOND
     1     1     2    1
     2     2     3   ar
     3     2    20   ar
     4     3     4   ar
     5     4     5   ar
     6     5     6   ar
     7     6     7    1
     8     6    20   ar
     9     7     8    1
    10     8     9    2
    11     8    10    2
    12     8    11    1
    13    11    12   ar
    14    11    19   ar
    15    12    13   ar
    16    13    14   ar
    17    14    15   ar
    18    15    16   ar
    19    15    19   ar
    20    16    17   ar
    21    17    18   ar
    22    18    19   ar
    23     1    21    1
    24     1    22    1
    25     1    23    1
    26     3    24    1
    27     4    25    1
    28     5    26    1
    29    12    27    1
    30    13    28    1
    31    14    29    1
    32    20    30    1
@<TRIPOS>MOLECULE
../data/bude_mols_rdkit_confs_charged/molecule_13.pdb
 30 32 0 0 0
SMALL
GASTEIGER

@<TRIPOS>ATOM
      1  C1        -4.8440   -0.7230   -0.6970 C.3     1  UNL1       -0.0397
      2  C2        -3.6780   -0.2310    0.1150 C.ar    1  UNL1       -0.0516
      3  C3        -3.6730   -0.3500    1.4850 C.ar    1  UNL1       -0.0589
      4  C4        -2.6010    0.1070    2.1870 C.ar    1  UNL1       -0.0627
      5  C5        -1.4950    0.6950    1.5730 C.ar    1  UNL1       -0.0761
      6  C6        -1.4740    0.8240    0.2180 C.ar    1  UNL1       -0.1290
      7  N1        -0.4730    1.4300   -0.4840 N.pl3   1  UNL1       -0.5367
      8  S1         0.8920    1.0970   -1.3170 S.O2    1  UNL1       -0.0569
      9  O1         1.4970    2.4410   -1.8020 O.2     1  UNL1       -0.1841
     10  O2         0.6520    0.2660   -2.5850 O.2     1  UNL1       -0.1841
     11  C7         2.2000    0.3420   -0.4470 C.ar    1  UNL1        0.1006
     12  C8         2.1450    0.0280    0.8830 C.ar    1  UNL1       -0.0360
     13  C9         3.2390   -0.5770    1.5160 C.ar    1  UNL1       -0.0578
     14  C10        4.3600   -0.8500    0.7850 C.ar    1  UNL1       -0.0334
     15  C11        4.4310   -0.5320   -0.5900 C.ar    1  UNL1        0.1017
     16  N2         5.4980   -0.7880   -1.3000 N.ar    1  UNL1       -0.1907
     17  S2         5.1500   -0.2330   -2.9360 S.2     1  UNL1        0.1165
     18  N3         3.5070    0.3170   -2.4620 N.ar    1  UNL1       -0.1889
     19  C12        3.3830    0.0430   -1.1780 C.ar    1  UNL1        0.1232
     20  C13       -2.5950    0.3450   -0.4890 C.ar    1  UNL1       -0.0732
     21 H          -5.5836   -1.1374   -0.0443 H       1  UNL1        0.0278
     22 H          -4.5103   -1.4751   -1.3810 H       1  UNL1        0.0278
     23 H          -5.2678    0.0934   -1.2436 H       1  UNL1        0.0278
     24 H          -4.4728   -0.7808    1.9747 H       1  UNL1        0.0620
     25 H          -2.6062    0.0150    3.2149 H       1  UNL1        0.0617
     26 H          -0.7004    1.0290    2.1405 H       1  UNL1        0.0606
     27 H           1.2918    0.2381    1.4242 H       1  UNL1        0.0637
     28 H           3.1983   -0.8129    2.5199 H       1  UNL1        0.0619
     29 H           5.1691   -1.2962    1.2448 H       1  UNL1        0.0640
     30 H          -2.5987    0.4337   -1.5172 H       1  UNL1        0.0608
@<TRIPOS>UNITY_ATOM_ATTR
7 1
charge -1
@<TRIPOS>BOND
     1     1     2    1
     2     2     3   ar
     3     2    20   ar
     4     3     4   ar
     5     4     5   ar
     6     5     6   ar
     7     6     7    1
     8     6    20   ar
     9     7     8    1
    10     8     9    2
    11     8    10    2
    12     8    11    1
    13    11    12   ar
    14    11    19   ar
    15    12    13   ar
    16    13    14   ar
    17    14    15   ar
    18    15    16   ar
    19    15    19   ar
    20    16    17   ar
    21    17    18   ar
    22    18    19   ar
    23     1    21    1
    24     1    22    1
    25     1    23    1
    26     3    24    1
    27     4    25    1
    28     5    26    1
    29    12    27    1
    30    13    28    1
    31    14    29    1
    32    20    30    1
