@<TRIPOS>MOLECULE
../data/bude_mols_rdkit_confs_charged/molecule_91.pdb
 33 34 0 0 0
SMALL
GASTEIGER

@<TRIPOS>ATOM
      1  N1        -4.9980   -0.5390   -0.5890 N.3     1  UNL1       -0.1906
      2  S1        -4.1240    0.8600   -1.1560 S.O2    1  UNL1        0.1067
      3  O1        -5.1720    1.7800   -1.7690 O.2     1  UNL1       -0.1383
      4  O2        -3.1460    0.5020   -2.2230 O.2     1  UNL1       -0.1383
      5  N2        -3.4290    1.6610    0.1760 N.pl3   1  UNL1       -0.2068
      6  C1        -2.1360    1.3930    0.6960 C.ar    1  UNL1        0.0479
      7  C2        -1.2680    2.4100    1.0290 C.ar    1  UNL1       -0.0394
      8  C3         0.0040    2.1330    1.5400 C.ar    1  UNL1       -0.0611
      9  C4         0.4280    0.8360    1.7260 C.ar    1  UNL1       -0.0760
     10  C5        -0.4380   -0.1830    1.3940 C.ar    1  UNL1       -0.1274
     11  N3        -0.0000   -1.5380    1.5860 N.pl3   1  UNL1       -0.5366
     12  S2         0.8200   -2.3650    0.2990 S.O2    1  UNL1       -0.0533
     13  O3         1.1810   -3.7280    0.8220 O.2     1  UNL1       -0.1840
     14  O4        -0.0470   -2.4440   -0.9260 O.2     1  UNL1       -0.1840
     15  C6         2.2990   -1.5050   -0.0680 C.ar    1  UNL1        0.1486
     16  C7         2.2580   -0.5020   -1.0240 C.ar    1  UNL1        0.1875
     17  F1         1.0740   -0.2240   -1.6390 F       1  UNL1       -0.2003
     18  C8         3.4230    0.1760   -1.3140 C.ar    1  UNL1        0.1982
     19  F2         3.3850    1.1500   -2.2420 F       1  UNL1       -0.1993
     20  C9         4.6210   -0.1060   -0.6900 C.ar    1  UNL1        0.1992
     21  F3         5.7640    0.5710   -0.9860 F       1  UNL1       -0.1993
     22  C10        4.6370   -1.1120    0.2610 C.ar    1  UNL1        0.1982
     23  F4         5.8000   -1.4360    0.9130 F       1  UNL1       -0.1993
     24  C11        3.4850   -1.8170    0.5800 C.ar    1  UNL1        0.1875
     25  F5         3.4800   -2.8100    1.5130 F       1  UNL1       -0.2003
     26  C12       -1.6860    0.1070    0.8920 C.ar    1  UNL1       -0.0537
     27 H          -5.4168   -1.0231   -1.3831 H       1  UNL1        0.1456
     28 H          -5.7320   -0.2435    0.0546 H       1  UNL1        0.1456
     29 H          -3.9627    2.3607    0.6174 H       1  UNL1        0.1747
     30 H          -1.5610    3.3910    0.8994 H       1  UNL1        0.0636
     31 H           0.6350    2.9130    1.7816 H       1  UNL1        0.0618
     32 H           1.3670    0.6332    2.1031 H       1  UNL1        0.0606
     33 H          -2.3137   -0.6760    0.6513 H       1  UNL1        0.0624
@<TRIPOS>UNITY_ATOM_ATTR
11 1
charge -1
@<TRIPOS>BOND
     1     1     2    1
     2     2     3    2
     3     2     4    2
     4     2     5    1
     5     5     6    1
     6     6     7   ar
     7     6    26   ar
     8     7     8   ar
     9     8     9   ar
    10     9    10   ar
    11    10    11    1
    12    10    26   ar
    13    11    12    1
    14    12    13    2
    15    12    14    2
    16    12    15    1
    17    15    16   ar
    18    15    24   ar
    19    16    17    1
    20    16    18   ar
    21    18    19    1
    22    18    20   ar
    23    20    21    1
    24    20    22   ar
    25    22    23    1
    26    22    24   ar
    27    24    25    1
    28     1    27    1
    29     1    28    1
    30     5    29    1
    31     7    30    1
    32     8    31    1
    33     9    32    1
    34    26    33    1
@<TRIPOS>MOLECULE
../data/bude_mols_rdkit_confs_charged/molecule_91.pdb
 33 34 0 0 0
SMALL
GASTEIGER

@<TRIPOS>ATOM
      1  N1        -4.5730    0.1980    2.1820 N.3     1  UNL1       -0.1906
      2  S1        -3.8420   -1.2740    1.6070 S.O2    1  UNL1        0.1067
      3  O1        -4.6640   -1.7490    0.4470 O.2     1  UNL1       -0.1383
      4  O2        -3.9850   -2.3070    2.6950 O.2     1  UNL1       -0.1383
      5  N2        -2.2080   -0.9820    1.2070 N.pl3   1  UNL1       -0.2068
      6  C1        -1.7740   -0.5720   -0.0900 C.ar    1  UNL1        0.0479
      7  C2        -2.2590   -1.1840   -1.2270 C.ar    1  UNL1       -0.0394
      8  C3        -1.8540   -0.8050   -2.4830 C.ar    1  UNL1       -0.0611
      9  C4        -0.9350    0.2190   -2.5870 C.ar    1  UNL1       -0.0760
     10  C5        -0.4170    0.8660   -1.4840 C.ar    1  UNL1       -0.1274
     11  N3         0.5420    1.9320   -1.6270 N.pl3   1  UNL1       -0.5366
     12  S2         2.2150    1.6030   -1.6550 S.O2    1  UNL1       -0.0533
     13  O3         2.9390    2.8790   -1.9800 O.2     1  UNL1       -0.1840
     14  O4         2.4810    0.6560   -2.8070 O.2     1  UNL1       -0.1840
     15  C6         2.7930    0.8740   -0.2000 C.ar    1  UNL1        0.1486
     16  C7         2.8130   -0.4960   -0.0500 C.ar    1  UNL1        0.1875
     17  F1         2.3660   -1.2930   -1.0750 F       1  UNL1       -0.2003
     18  C8         3.2670   -1.0840    1.0970 C.ar    1  UNL1        0.1982
     19  F2         3.2620   -2.4560    1.1870 F       1  UNL1       -0.1993
     20  C9         3.7170   -0.2990    2.1310 C.ar    1  UNL1        0.1992
     21  F3         4.1640   -0.8940    3.2600 F       1  UNL1       -0.1993
     22  C10        3.7200    1.0650    2.0370 C.ar    1  UNL1        0.1982
     23  F4         4.1640    1.8210    3.0600 F       1  UNL1       -0.1993
     24  C11        3.2490    1.6380    0.8520 C.ar    1  UNL1        0.1875
     25  F5         3.2680    2.9940    0.7980 F       1  UNL1       -0.2003
     26  C12       -0.8470    0.4590   -0.2400 C.ar    1  UNL1       -0.0537
     27 H          -5.5490    0.0223    2.4206 H       1  UNL1        0.1456
     28 H          -4.5241    0.9094    1.4527 H       1  UNL1        0.1456
     29 H          -1.5282   -1.1029    1.9088 H       1  UNL1        0.1747
     30 H          -2.9457   -1.9484   -1.1309 H       1  UNL1        0.0636
     31 H          -2.2260   -1.2723   -3.3246 H       1  UNL1        0.0618
     32 H          -0.6231    0.5122   -3.5260 H       1  UNL1        0.0606
     33 H          -0.4744    0.9280    0.6004 H       1  UNL1        0.0624
@<TRIPOS>UNITY_ATOM_ATTR
11 1
charge -1
@<TRIPOS>BOND
     1     1     2    1
     2     2     3    2
     3     2     4    2
     4     2     5    1
     5     5     6    1
     6     6     7   ar
     7     6    26   ar
     8     7     8   ar
     9     8     9   ar
    10     9    10   ar
    11    10    11    1
    12    10    26   ar
    13    11    12    1
    14    12    13    2
    15    12    14    2
    16    12    15    1
    17    15    16   ar
    18    15    24   ar
    19    16    17    1
    20    16    18   ar
    21    18    19    1
    22    18    20   ar
    23    20    21    1
    24    20    22   ar
    25    22    23    1
    26    22    24   ar
    27    24    25    1
    28     1    27    1
    29     1    28    1
    30     5    29    1
    31     7    30    1
    32     8    31    1
    33     9    32    1
    34    26    33    1
@<TRIPOS>MOLECULE
../data/bude_mols_rdkit_confs_charged/molecule_91.pdb
 33 34 0 0 0
SMALL
GASTEIGER

@<TRIPOS>ATOM
      1  N1         1.3570    2.7630   -1.4740 N.3     1  UNL1       -0.1906
      2  S1         2.6480    1.6570   -1.8070 S.O2    1  UNL1        0.1067
      3  O1         3.7030    1.8480   -0.7790 O.2     1  UNL1       -0.1383
      4  O2         3.2660    1.9380   -3.1500 O.2     1  UNL1       -0.1383
      5  N2         1.9700    0.0760   -1.8160 N.pl3   1  UNL1       -0.2068
      6  C1         1.9080   -0.6990   -0.6380 C.ar    1  UNL1        0.0479
      7  C2         2.9830   -0.8320    0.2050 C.ar    1  UNL1       -0.0394
      8  C3         2.8760   -1.6160    1.3590 C.ar    1  UNL1       -0.0611
      9  C4         1.6680   -2.2440    1.6220 C.ar    1  UNL1       -0.0760
     10  C5         0.5710   -2.1240    0.7860 C.ar    1  UNL1       -0.1274
     11  N3        -0.6710   -2.7650    1.0480 N.pl3   1  UNL1       -0.5366
     12  S2        -1.8870   -1.9550    1.9810 S.O2    1  UNL1       -0.0533
     13  O3        -3.1030   -2.7940    2.1480 O.2     1  UNL1       -0.1840
     14  O4        -1.3310   -1.6480    3.3240 O.2     1  UNL1       -0.1840
     15  C6        -2.3220   -0.5000    1.0950 C.ar    1  UNL1        0.1486
     16  C7        -3.3350   -0.4960    0.1600 C.ar    1  UNL1        0.1875
     17  F1        -3.9980   -1.6360   -0.0700 F       1  UNL1       -0.2003
     18  C8        -3.6910    0.6420   -0.5470 C.ar    1  UNL1        0.1982
     19  F2        -4.6920    0.6270   -1.4650 F       1  UNL1       -0.1993
     20  C9        -3.0200    1.8310   -0.3270 C.ar    1  UNL1        0.1992
     21  F3        -3.3240    2.9780   -0.9900 F       1  UNL1       -0.1993
     22  C10       -2.0070    1.8160    0.6120 C.ar    1  UNL1        0.1982
     23  F4        -1.3380    2.9670    0.8430 F       1  UNL1       -0.1993
     24  C11       -1.6540    0.6880    1.3130 C.ar    1  UNL1        0.1875
     25  F5        -0.6480    0.6870    2.2400 F       1  UNL1       -0.2003
     26  C12        0.7240   -1.3400   -0.3420 C.ar    1  UNL1       -0.0537
     27 H           1.7207    3.7159   -1.4603 H       1  UNL1        0.1456
     28 H           0.9461    2.5428   -0.5668 H       1  UNL1        0.1456
     29 H           1.6190   -0.2948   -2.6578 H       1  UNL1        0.1747
     30 H           3.8710   -0.3533   -0.0125 H       1  UNL1        0.0636
     31 H           3.6777   -1.7244    1.9997 H       1  UNL1        0.0618
     32 H           1.5835   -2.8223    2.4725 H       1  UNL1        0.0606
     33 H          -0.0759   -1.2307   -0.9849 H       1  UNL1        0.0624
@<TRIPOS>UNITY_ATOM_ATTR
11 1
charge -1
@<TRIPOS>BOND
     1     1     2    1
     2     2     3    2
     3     2     4    2
     4     2     5    1
     5     5     6    1
     6     6     7   ar
     7     6    26   ar
     8     7     8   ar
     9     8     9   ar
    10     9    10   ar
    11    10    11    1
    12    10    26   ar
    13    11    12    1
    14    12    13    2
    15    12    14    2
    16    12    15    1
    17    15    16   ar
    18    15    24   ar
    19    16    17    1
    20    16    18   ar
    21    18    19    1
    22    18    20   ar
    23    20    21    1
    24    20    22   ar
    25    22    23    1
    26    22    24   ar
    27    24    25    1
    28     1    27    1
    29     1    28    1
    30     5    29    1
    31     7    30    1
    32     8    31    1
    33     9    32    1
    34    26    33    1
@<TRIPOS>MOLECULE
../data/bude_mols_rdkit_confs_charged/molecule_91.pdb
 33 34 0 0 0
SMALL
GASTEIGER

@<TRIPOS>ATOM
      1  N1        -4.4020    0.4400    2.2480 N.3     1  UNL1       -0.1906
      2  S1        -3.8380    1.4840    0.9940 S.O2    1  UNL1        0.1067
      3  O1        -4.7210    1.3300   -0.2070 O.2     1  UNL1       -0.1383
      4  O2        -3.9080    2.9200    1.4730 O.2     1  UNL1       -0.1383
      5  N2        -2.2140    1.1680    0.5720 N.pl3   1  UNL1       -0.2068
      6  C1        -1.8100    0.2510   -0.4450 C.ar    1  UNL1        0.0479
      7  C2        -2.4190    0.2680   -1.6800 C.ar    1  UNL1       -0.0394
      8  C3        -1.9650   -0.6560   -2.6260 C.ar    1  UNL1       -0.0611
      9  C4        -0.9550   -1.5500   -2.3510 C.ar    1  UNL1       -0.0760
     10  C5        -0.3610   -1.5590   -1.1310 C.ar    1  UNL1       -0.1274
     11  N3         0.6840   -2.4360   -0.7480 N.pl3   1  UNL1       -0.5366
     12  S2         2.3500   -2.0970   -0.9450 S.O2    1  UNL1       -0.0533
     13  O3         2.7550   -1.9860   -2.3750 O.2     1  UNL1       -0.1840
     14  O4         3.1170   -3.2560   -0.3520 O.2     1  UNL1       -0.1840
     15  C6         2.8250   -0.6680   -0.0270 C.ar    1  UNL1        0.1486
     16  C7         2.7770    0.5870   -0.5590 C.ar    1  UNL1        0.1875
     17  F1         2.3540    0.7730   -1.8370 F       1  UNL1       -0.2003
     18  C8         3.1570    1.6780    0.1940 C.ar    1  UNL1        0.1982
     19  F2         3.0950    2.9070   -0.3710 F       1  UNL1       -0.1993
     20  C9         3.5960    1.5600    1.4940 C.ar    1  UNL1        0.1992
     21  F3         3.9700    2.6600    2.2260 F       1  UNL1       -0.1993
     22  C10        3.6460    0.2930    2.0360 C.ar    1  UNL1        0.1982
     23  F4         4.0750    0.1670    3.3130 F       1  UNL1       -0.1993
     24  C11        3.2650   -0.8020    1.2820 C.ar    1  UNL1        0.1875
     25  F5         3.3270   -2.0370    1.8500 F       1  UNL1       -0.2003
     26  C12       -0.7830   -0.6630   -0.1770 C.ar    1  UNL1       -0.0537
     27 H          -5.3728    0.6643    2.4662 H       1  UNL1        0.1456
     28 H          -3.8278    0.5683    3.0812 H       1  UNL1        0.1456
     29 H          -1.5095    1.6501    1.0625 H       1  UNL1        0.1747
     30 H          -3.1771    0.9335   -1.8977 H       1  UNL1        0.0636
     31 H          -2.4014   -0.6682   -3.5611 H       1  UNL1        0.0618
     32 H          -0.6480   -2.2168   -3.0764 H       1  UNL1        0.0606
     33 H          -0.3351   -0.6640    0.7528 H       1  UNL1        0.0624
@<TRIPOS>UNITY_ATOM_ATTR
11 1
charge -1
@<TRIPOS>BOND
     1     1     2    1
     2     2     3    2
     3     2     4    2
     4     2     5    1
     5     5     6    1
     6     6     7   ar
     7     6    26   ar
     8     7     8   ar
     9     8     9   ar
    10     9    10   ar
    11    10    11    1
    12    10    26   ar
    13    11    12    1
    14    12    13    2
    15    12    14    2
    16    12    15    1
    17    15    16   ar
    18    15    24   ar
    19    16    17    1
    20    16    18   ar
    21    18    19    1
    22    18    20   ar
    23    20    21    1
    24    20    22   ar
    25    22    23    1
    26    22    24   ar
    27    24    25    1
    28     1    27    1
    29     1    28    1
    30     5    29    1
    31     7    30    1
    32     8    31    1
    33     9    32    1
    34    26    33    1
@<TRIPOS>MOLECULE
../data/bude_mols_rdkit_confs_charged/molecule_91.pdb
 33 34 0 0 0
SMALL
GASTEIGER

@<TRIPOS>ATOM
      1  N1         4.3870    1.6230    1.9980 N.3     1  UNL1       -0.1906
      2  S1         3.7970    1.9020    0.3780 S.O2    1  UNL1        0.1067
      3  O1         4.6290    1.1160   -0.6020 O.2     1  UNL1       -0.1383
      4  O2         3.9590    3.3540    0.0130 O.2     1  UNL1       -0.1383
      5  N2         2.1470    1.4520    0.3360 N.pl3   1  UNL1       -0.2068
      6  C1         1.7630    0.1310    0.0090 C.ar    1  UNL1        0.0479
      7  C2         2.4080   -0.9720    0.5590 C.ar    1  UNL1       -0.0394
      8  C3         2.0540   -2.2680    0.2570 C.ar    1  UNL1       -0.0611
      9  C4         1.0180   -2.4560   -0.6270 C.ar    1  UNL1       -0.0760
     10  C5         0.3390   -1.4050   -1.2070 C.ar    1  UNL1       -0.1274
     11  N3        -0.7440   -1.6380   -2.1310 N.pl3   1  UNL1       -0.5366
     12  S2        -2.3270   -1.7660   -1.4840 S.O2    1  UNL1       -0.0533
     13  O3        -2.3180   -2.9580   -0.5370 O.2     1  UNL1       -0.1840
     14  O4        -3.2580   -2.1540   -2.6190 O.2     1  UNL1       -0.1840
     15  C6        -2.8550   -0.3320   -0.6760 C.ar    1  UNL1        0.1486
     16  C7        -2.6030   -0.1860    0.6850 C.ar    1  UNL1        0.1875
     17  F1        -1.9460   -1.1790    1.3460 F       1  UNL1       -0.2003
     18  C8        -3.0000    0.9330    1.3820 C.ar    1  UNL1        0.1982
     19  F2        -2.7520    1.0760    2.7180 F       1  UNL1       -0.1993
     20  C9        -3.6630    1.9560    0.7590 C.ar    1  UNL1        0.1992
     21  F3        -4.0490    3.0530    1.4560 F       1  UNL1       -0.1993
     22  C10       -3.9240    1.8350   -0.5850 C.ar    1  UNL1        0.1982
     23  F4        -4.5850    2.8520   -1.2110 F       1  UNL1       -0.1993
     24  C11       -3.5240    0.7070   -1.2870 C.ar    1  UNL1        0.1875
     25  F5        -3.7840    0.5950   -2.6100 F       1  UNL1       -0.2003
     26  C12        0.7230   -0.1220   -0.8790 C.ar    1  UNL1       -0.0537
     27 H           5.3716    1.8839    2.0509 H       1  UNL1        0.1456
     28 H           4.2839    0.6356    2.2321 H       1  UNL1        0.1456
     29 H           1.4556    2.1218    0.5423 H       1  UNL1        0.1747
     30 H           3.1838   -0.8124    1.2206 H       1  UNL1        0.0636
     31 H           2.5486   -3.0694    0.6791 H       1  UNL1        0.0618
     32 H           0.7378   -3.4201   -0.8656 H       1  UNL1        0.0606
     33 H           0.2238    0.6743   -1.3052 H       1  UNL1        0.0624
@<TRIPOS>UNITY_ATOM_ATTR
11 1
charge -1
@<TRIPOS>BOND
     1     1     2    1
     2     2     3    2
     3     2     4    2
     4     2     5    1
     5     5     6    1
     6     6     7   ar
     7     6    26   ar
     8     7     8   ar
     9     8     9   ar
    10     9    10   ar
    11    10    11    1
    12    10    26   ar
    13    11    12    1
    14    12    13    2
    15    12    14    2
    16    12    15    1
    17    15    16   ar
    18    15    24   ar
    19    16    17    1
    20    16    18   ar
    21    18    19    1
    22    18    20   ar
    23    20    21    1
    24    20    22   ar
    25    22    23    1
    26    22    24   ar
    27    24    25    1
    28     1    27    1
    29     1    28    1
    30     5    29    1
    31     7    30    1
    32     8    31    1
    33     9    32    1
    34    26    33    1
@<TRIPOS>MOLECULE
../data/bude_mols_rdkit_confs_charged/molecule_91.pdb
 33 34 0 0 0
SMALL
GASTEIGER

@<TRIPOS>ATOM
      1  N1         5.7900    0.5770   -0.8680 N.3     1  UNL1       -0.1906
      2  S1         4.6340   -0.6880   -1.1960 S.O2    1  UNL1        0.1067
      3  O1         3.8710   -0.3020   -2.4160 O.2     1  UNL1       -0.1383
      4  O2         5.3430   -1.9930   -1.4330 O.2     1  UNL1       -0.1383
      5  N2         3.5510   -0.8390    0.1320 N.pl3   1  UNL1       -0.2068
      6  C1         2.3310   -0.1180    0.2320 C.ar    1  UNL1        0.0479
      7  C2         2.0250    0.4920    1.4560 C.ar    1  UNL1       -0.0394
      8  C3         0.8470    1.1990    1.5770 C.ar    1  UNL1       -0.0611
      9  C4        -0.0550    1.3370    0.5430 C.ar    1  UNL1       -0.0760
     10  C5         0.2620    0.7300   -0.6550 C.ar    1  UNL1       -0.1274
     11  N3        -0.6700    0.8750   -1.7200 N.pl3   1  UNL1       -0.5366
     12  S2        -1.9220   -0.3070   -1.8830 S.O2    1  UNL1       -0.0533
     13  O3        -1.3900   -1.6790   -2.0600 O.2     1  UNL1       -0.1840
     14  O4        -2.7430    0.0350   -3.1020 O.2     1  UNL1       -0.1840
     15  C6        -2.9400   -0.3010   -0.4400 C.ar    1  UNL1        0.1486
     16  C7        -2.6450   -1.1140    0.6440 C.ar    1  UNL1        0.1875
     17  F1        -1.5360   -1.8990    0.5110 F       1  UNL1       -0.2003
     18  C8        -3.4350   -1.1010    1.7520 C.ar    1  UNL1        0.1982
     19  F2        -3.1190   -1.9170    2.8080 F       1  UNL1       -0.1993
     20  C9        -4.5560   -0.2700    1.8170 C.ar    1  UNL1        0.1992
     21  F3        -5.3250   -0.2680    2.9140 F       1  UNL1       -0.1993
     22  C10       -4.8630    0.5460    0.7470 C.ar    1  UNL1        0.1982
     23  F4        -5.9470    1.3610    0.7880 F       1  UNL1       -0.1993
     24  C11       -4.0540    0.5230   -0.3710 C.ar    1  UNL1        0.1875
     25  F5        -4.3400    1.3250   -1.4470 F       1  UNL1       -0.2003
     26  C12        1.4420    0.0090   -0.8120 C.ar    1  UNL1       -0.0537
     27 H           6.4310    0.6647   -1.6566 H       1  UNL1        0.1456
     28 H           6.3169    0.3461   -0.0257 H       1  UNL1        0.1456
     29 H           3.7890   -1.4571    0.8604 H       1  UNL1        0.1747
     30 H           2.6723    0.4133    2.2559 H       1  UNL1        0.0636
     31 H           0.6308    1.6449    2.4822 H       1  UNL1        0.0618
     32 H          -0.9300    1.8716    0.6602 H       1  UNL1        0.0606
     33 H           1.6528   -0.4348   -1.7196 H       1  UNL1        0.0624
@<TRIPOS>UNITY_ATOM_ATTR
11 1
charge -1
@<TRIPOS>BOND
     1     1     2    1
     2     2     3    2
     3     2     4    2
     4     2     5    1
     5     5     6    1
     6     6     7   ar
     7     6    26   ar
     8     7     8   ar
     9     8     9   ar
    10     9    10   ar
    11    10    11    1
    12    10    26   ar
    13    11    12    1
    14    12    13    2
    15    12    14    2
    16    12    15    1
    17    15    16   ar
    18    15    24   ar
    19    16    17    1
    20    16    18   ar
    21    18    19    1
    22    18    20   ar
    23    20    21    1
    24    20    22   ar
    25    22    23    1
    26    22    24   ar
    27    24    25    1
    28     1    27    1
    29     1    28    1
    30     5    29    1
    31     7    30    1
    32     8    31    1
    33     9    32    1
    34    26    33    1
@<TRIPOS>MOLECULE
../data/bude_mols_rdkit_confs_charged/molecule_91.pdb
 33 34 0 0 0
SMALL
GASTEIGER

@<TRIPOS>ATOM
      1  N1        -5.1930    1.8250   -0.5420 N.3     1  UNL1       -0.1906
      2  S1        -4.9290    0.4690    0.4850 S.O2    1  UNL1        0.1067
      3  O1        -5.8800    0.4780    1.6350 O.2     1  UNL1       -0.1383
      4  O2        -5.0280   -0.8280   -0.2780 O.2     1  UNL1       -0.1383
      5  N2        -3.3280    0.5860    1.1040 N.pl3   1  UNL1       -0.2068
      6  C1        -2.2050    0.0130    0.4630 C.ar    1  UNL1        0.0479
      7  C2        -2.0100    0.1360   -0.8940 C.ar    1  UNL1       -0.0394
      8  C3        -0.8860   -0.4480   -1.4790 C.ar    1  UNL1       -0.0611
      9  C4         0.0290   -1.1440   -0.7130 C.ar    1  UNL1       -0.0760
     10  C5        -0.1780   -1.2590    0.6450 C.ar    1  UNL1       -0.1274
     11  N3         0.7430   -1.9720    1.4830 N.pl3   1  UNL1       -0.5366
     12  S2         2.0360   -1.0510    2.1670 S.O2    1  UNL1       -0.0533
     13  O3         2.8900   -1.8760    3.0650 O.2     1  UNL1       -0.1840
     14  O4         1.4280    0.1160    2.9100 O.2     1  UNL1       -0.1840
     15  C6         2.9890   -0.4180    0.8430 C.ar    1  UNL1        0.1486
     16  C7         2.6560    0.8150    0.3180 C.ar    1  UNL1        0.1875
     17  F1         1.6050    1.5410    0.8080 F       1  UNL1       -0.2003
     18  C8         3.3550    1.3850   -0.7250 C.ar    1  UNL1        0.1982
     19  F2         3.0330    2.6020   -1.2510 F       1  UNL1       -0.1993
     20  C9         4.4300    0.6930   -1.2610 C.ar    1  UNL1        0.1992
     21  F3         5.1690    1.1800   -2.2850 F       1  UNL1       -0.1993
     22  C10        4.7610   -0.5350   -0.7370 C.ar    1  UNL1        0.1982
     23  F4         5.8000   -1.2210   -1.2440 F       1  UNL1       -0.1993
     24  C11        4.0550   -1.0940    0.3040 C.ar    1  UNL1        0.1875
     25  F5         4.3600   -2.3030    0.8400 F       1  UNL1       -0.2003
     26  C12       -1.2840   -0.6850    1.2140 C.ar    1  UNL1       -0.0537
     27 H          -6.1374    1.7826   -0.9251 H       1  UNL1        0.1456
     28 H          -4.5158    1.8109   -1.3046 H       1  UNL1        0.1456
     29 H          -3.1866    1.0761    1.9461 H       1  UNL1        0.1747
     30 H          -2.6885    0.6551   -1.4730 H       1  UNL1        0.0636
     31 H          -0.7364   -0.3589   -2.4962 H       1  UNL1        0.0618
     32 H           0.8583   -1.5731   -1.1525 H       1  UNL1        0.0606
     33 H          -1.4314   -0.7776    2.2312 H       1  UNL1        0.0624
@<TRIPOS>UNITY_ATOM_ATTR
11 1
charge -1
@<TRIPOS>BOND
     1     1     2    1
     2     2     3    2
     3     2     4    2
     4     2     5    1
     5     5     6    1
     6     6     7   ar
     7     6    26   ar
     8     7     8   ar
     9     8     9   ar
    10     9    10   ar
    11    10    11    1
    12    10    26   ar
    13    11    12    1
    14    12    13    2
    15    12    14    2
    16    12    15    1
    17    15    16   ar
    18    15    24   ar
    19    16    17    1
    20    16    18   ar
    21    18    19    1
    22    18    20   ar
    23    20    21    1
    24    20    22   ar
    25    22    23    1
    26    22    24   ar
    27    24    25    1
    28     1    27    1
    29     1    28    1
    30     5    29    1
    31     7    30    1
    32     8    31    1
    33     9    32    1
    34    26    33    1
@<TRIPOS>MOLECULE
../data/bude_mols_rdkit_confs_charged/molecule_91.pdb
 33 34 0 0 0
SMALL
GASTEIGER

@<TRIPOS>ATOM
      1  N1         5.8460   -0.5070   -0.1660 N.3     1  UNL1       -0.1906
      2  S1         4.6810   -1.7700    0.0420 S.O2    1  UNL1        0.1067
      3  O1         4.3650   -2.3230   -1.3140 O.2     1  UNL1       -0.1383
      4  O2         5.2640   -2.9090    0.8460 O.2     1  UNL1       -0.1383
      5  N2         3.2490   -1.1890    0.7570 N.pl3   1  UNL1       -0.2068
      6  C1         2.1510   -0.7280   -0.0100 C.ar    1  UNL1        0.0479
      7  C2         1.6210   -1.4260   -1.0730 C.ar    1  UNL1       -0.0394
      8  C3         0.5340   -0.9540   -1.8060 C.ar    1  UNL1       -0.0611
      9  C4        -0.0480    0.2500   -1.4740 C.ar    1  UNL1       -0.0760
     10  C5         0.4780    0.9530   -0.4110 C.ar    1  UNL1       -0.1274
     11  N3        -0.1350    2.1870   -0.0880 N.pl3   1  UNL1       -0.5366
     12  S2        -1.4460    2.2710    1.0350 S.O2    1  UNL1       -0.0533
     13  O3        -1.8590    3.6970    1.2410 O.2     1  UNL1       -0.1840
     14  O4        -1.0670    1.6670    2.3700 O.2     1  UNL1       -0.1840
     15  C6        -2.7930    1.3330    0.4190 C.ar    1  UNL1        0.1486
     16  C7        -2.8830   -0.0070    0.7530 C.ar    1  UNL1        0.1875
     17  F1        -1.9240   -0.5420    1.5460 F       1  UNL1       -0.2003
     18  C8        -3.9360   -0.7420    0.2710 C.ar    1  UNL1        0.1982
     19  F2        -4.0430   -2.0710    0.5900 F       1  UNL1       -0.1993
     20  C9        -4.9200   -0.2230   -0.5330 C.ar    1  UNL1        0.1992
     21  F3        -5.9630   -0.9430   -1.0130 F       1  UNL1       -0.1993
     22  C10       -4.8070    1.1270   -0.8550 C.ar    1  UNL1        0.1982
     23  F4        -5.7370    1.7170   -1.6440 F       1  UNL1       -0.1993
     24  C11       -3.7630    1.8860   -0.3860 C.ar    1  UNL1        0.1875
     25  F5        -3.6220    3.2120   -0.6820 F       1  UNL1       -0.2003
     26  C12        1.5500    0.4920    0.3150 C.ar    1  UNL1       -0.0537
     27 H           6.6887   -0.8891   -0.5954 H       1  UNL1        0.1456
     28 H           6.0791   -0.1064    0.7426 H       1  UNL1        0.1456
     29 H           3.1818   -1.1729    1.7391 H       1  UNL1        0.1747
     30 H           2.0438   -2.3300   -1.3356 H       1  UNL1        0.0636
     31 H           0.1653   -1.5055   -2.5965 H       1  UNL1        0.0618
     32 H          -0.8539    0.6148   -2.0054 H       1  UNL1        0.0606
     33 H           1.9133    1.0491    1.1041 H       1  UNL1        0.0624
@<TRIPOS>UNITY_ATOM_ATTR
11 1
charge -1
@<TRIPOS>BOND
     1     1     2    1
     2     2     3    2
     3     2     4    2
     4     2     5    1
     5     5     6    1
     6     6     7   ar
     7     6    26   ar
     8     7     8   ar
     9     8     9   ar
    10     9    10   ar
    11    10    11    1
    12    10    26   ar
    13    11    12    1
    14    12    13    2
    15    12    14    2
    16    12    15    1
    17    15    16   ar
    18    15    24   ar
    19    16    17    1
    20    16    18   ar
    21    18    19    1
    22    18    20   ar
    23    20    21    1
    24    20    22   ar
    25    22    23    1
    26    22    24   ar
    27    24    25    1
    28     1    27    1
    29     1    28    1
    30     5    29    1
    31     7    30    1
    32     8    31    1
    33     9    32    1
    34    26    33    1
@<TRIPOS>MOLECULE
../data/bude_mols_rdkit_confs_charged/molecule_91.pdb
 33 34 0 0 0
SMALL
GASTEIGER

@<TRIPOS>ATOM
      1  N1         4.4690   -1.7890    1.8090 N.3     1  UNL1       -0.1906
      2  S1         4.7960   -0.7880    0.4520 S.O2    1  UNL1        0.1067
      3  O1         6.1640   -1.1620   -0.0730 O.2     1  UNL1       -0.1383
      4  O2         4.8900    0.6360    0.9510 O.2     1  UNL1       -0.1383
      5  N2         3.5940   -0.8970   -0.7600 N.pl3   1  UNL1       -0.2068
      6  C1         2.4490   -0.0730   -0.8180 C.ar    1  UNL1        0.0479
      7  C2         2.0320    0.5050   -2.0070 C.ar    1  UNL1       -0.0394
      8  C3         0.9140    1.2950   -2.0030 C.ar    1  UNL1       -0.0611
      9  C4         0.1850    1.5400   -0.8680 C.ar    1  UNL1       -0.0760
     10  C5         0.5890    0.9660    0.3430 C.ar    1  UNL1       -0.1274
     11  N3        -0.1530    1.2080    1.5320 N.pl3   1  UNL1       -0.5366
     12  S2        -1.4610    0.1760    2.0030 S.O2    1  UNL1       -0.0533
     13  O3        -0.9110   -1.2390    2.0690 O.2     1  UNL1       -0.1840
     14  O4        -1.9670    0.5650    3.3490 O.2     1  UNL1       -0.1840
     15  C6        -2.7420    0.1660    0.8310 C.ar    1  UNL1        0.1486
     16  C7        -2.7450   -0.7570   -0.2130 C.ar    1  UNL1        0.1875
     17  F1        -1.7320   -1.6480   -0.3000 F       1  UNL1       -0.2003
     18  C8        -3.7470   -0.7800   -1.1460 C.ar    1  UNL1        0.1982
     19  F2        -3.6900   -1.6980   -2.1300 F       1  UNL1       -0.1993
     20  C9        -4.7990    0.1120   -1.0950 C.ar    1  UNL1        0.1992
     21  F3        -5.7670    0.0430   -2.0490 F       1  UNL1       -0.1993
     22  C10       -4.8080    1.0250   -0.0730 C.ar    1  UNL1        0.1982
     23  F4        -5.8460    1.9030   -0.0240 F       1  UNL1       -0.1993
     24  C11       -3.8010    1.0480    0.8650 C.ar    1  UNL1        0.1875
     25  F5        -3.8640    1.9660    1.8430 F       1  UNL1       -0.2003
     26  C12        1.7160    0.1750    0.3180 C.ar    1  UNL1       -0.0537
     27 H           5.2151   -1.6841    2.4966 H       1  UNL1        0.1456
     28 H           4.4177   -2.7625    1.5089 H       1  UNL1        0.1456
     29 H           3.7078   -1.5778   -1.4620 H       1  UNL1        0.1747
     30 H           2.5559    0.3424   -2.8811 H       1  UNL1        0.0636
     31 H           0.6075    1.7235   -2.8904 H       1  UNL1        0.0618
     32 H          -0.6528    2.1413   -0.9061 H       1  UNL1        0.0606
     33 H           2.0279   -0.2560    1.2023 H       1  UNL1        0.0624
@<TRIPOS>UNITY_ATOM_ATTR
11 1
charge -1
@<TRIPOS>BOND
     1     1     2    1
     2     2     3    2
     3     2     4    2
     4     2     5    1
     5     5     6    1
     6     6     7   ar
     7     6    26   ar
     8     7     8   ar
     9     8     9   ar
    10     9    10   ar
    11    10    11    1
    12    10    26   ar
    13    11    12    1
    14    12    13    2
    15    12    14    2
    16    12    15    1
    17    15    16   ar
    18    15    24   ar
    19    16    17    1
    20    16    18   ar
    21    18    19    1
    22    18    20   ar
    23    20    21    1
    24    20    22   ar
    25    22    23    1
    26    22    24   ar
    27    24    25    1
    28     1    27    1
    29     1    28    1
    30     5    29    1
    31     7    30    1
    32     8    31    1
    33     9    32    1
    34    26    33    1
@<TRIPOS>MOLECULE
../data/bude_mols_rdkit_confs_charged/molecule_91.pdb
 33 34 0 0 0
SMALL
GASTEIGER

@<TRIPOS>ATOM
      1  N1        -4.6680    0.1050    1.9360 N.3     1  UNL1       -0.1906
      2  S1        -4.7440   -0.6920    0.4150 S.O2    1  UNL1        0.1067
      3  O1        -5.9690   -1.5910    0.4440 O.2     1  UNL1       -0.1383
      4  O2        -4.8930    0.2490   -0.7310 O.2     1  UNL1       -0.1383
      5  N2        -3.3150   -1.6240    0.1850 N.pl3   1  UNL1       -0.2068
      6  C1        -2.1470   -1.1320   -0.4260 C.ar    1  UNL1        0.0479
      7  C2        -1.4880   -1.8820   -1.3590 C.ar    1  UNL1       -0.0394
      8  C3        -0.3240   -1.4220   -1.9850 C.ar    1  UNL1       -0.0611
      9  C4         0.1190   -0.1770   -1.6100 C.ar    1  UNL1       -0.0760
     10  C5        -0.5030    0.6030   -0.6870 C.ar    1  UNL1       -0.1274
     11  N3        -0.0230    1.8970   -0.3110 N.pl3   1  UNL1       -0.5366
     12  S2         1.1000    2.0840    1.0020 S.O2    1  UNL1       -0.0533
     13  O3         1.4280    3.5150    1.2280 O.2     1  UNL1       -0.1840
     14  O4         0.4880    1.4530    2.2200 O.2     1  UNL1       -0.1840
     15  C6         2.5590    1.1950    0.5510 C.ar    1  UNL1        0.1486
     16  C7         2.6560   -0.1360    0.9080 C.ar    1  UNL1        0.1875
     17  F1         1.6160   -0.7030    1.5930 F       1  UNL1       -0.2003
     18  C8         3.7800   -0.8610    0.5720 C.ar    1  UNL1        0.1982
     19  F2         3.8440   -2.1800    0.9410 F       1  UNL1       -0.1993
     20  C9         4.7880   -0.2410   -0.1130 C.ar    1  UNL1        0.1992
     21  F3         5.8840   -0.9570   -0.4370 F       1  UNL1       -0.1993
     22  C10        4.7070    1.0990   -0.4800 C.ar    1  UNL1        0.1982
     23  F4         5.7070    1.7130   -1.1600 F       1  UNL1       -0.1993
     24  C11        3.5900    1.7990   -0.1410 C.ar    1  UNL1        0.1875
     25  F5         3.4390    3.1220   -0.4690 F       1  UNL1       -0.2003
     26  C12       -1.6600    0.1060   -0.0870 C.ar    1  UNL1       -0.0537
     27 H          -5.5144    0.6575    2.0730 H       1  UNL1        0.1456
     28 H          -3.8539    0.7191    1.9577 H       1  UNL1        0.1456
     29 H          -3.3151   -2.5568    0.4997 H       1  UNL1        0.1747
     30 H          -1.8585   -2.8123   -1.6086 H       1  UNL1        0.0636
     31 H           0.1744   -1.9873   -2.6900 H       1  UNL1        0.0618
     32 H           0.9753    0.1879   -2.0557 H       1  UNL1        0.0606
     33 H          -2.1546    0.6742    0.6184 H       1  UNL1        0.0624
@<TRIPOS>UNITY_ATOM_ATTR
11 1
charge -1
@<TRIPOS>BOND
     1     1     2    1
     2     2     3    2
     3     2     4    2
     4     2     5    1
     5     5     6    1
     6     6     7   ar
     7     6    26   ar
     8     7     8   ar
     9     8     9   ar
    10     9    10   ar
    11    10    11    1
    12    10    26   ar
    13    11    12    1
    14    12    13    2
    15    12    14    2
    16    12    15    1
    17    15    16   ar
    18    15    24   ar
    19    16    17    1
    20    16    18   ar
    21    18    19    1
    22    18    20   ar
    23    20    21    1
    24    20    22   ar
    25    22    23    1
    26    22    24   ar
    27    24    25    1
    28     1    27    1
    29     1    28    1
    30     5    29    1
    31     7    30    1
    32     8    31    1
    33     9    32    1
    34    26    33    1
@<TRIPOS>MOLECULE
../data/bude_mols_rdkit_confs_charged/molecule_91.pdb
 33 34 0 0 0
SMALL
GASTEIGER

@<TRIPOS>ATOM
      1  N1        -4.1540   -2.2550   -1.1650 N.3     1  UNL1       -0.1906
      2  S1        -4.5300   -1.5200    0.3770 S.O2    1  UNL1        0.1067
      3  O1        -3.9580   -2.4200    1.4200 O.2     1  UNL1       -0.1383
      4  O2        -6.0320   -1.5130    0.5010 O.2     1  UNL1       -0.1383
      5  N2        -3.8880    0.0610    0.3760 N.pl3   1  UNL1       -0.2068
      6  C1        -2.5890    0.3470    0.8380 C.ar    1  UNL1        0.0479
      7  C2        -2.1670   -0.1840    2.0340 C.ar    1  UNL1       -0.0394
      8  C3        -0.8880    0.0930    2.5080 C.ar    1  UNL1       -0.0611
      9  C4        -0.0690    0.8930    1.7700 C.ar    1  UNL1       -0.0760
     10  C5        -0.4550    1.4480    0.5600 C.ar    1  UNL1       -0.1274
     11  N3         0.3730    2.2720   -0.2090 N.pl3   1  UNL1       -0.5366
     12  S2         1.4540    1.8020   -1.4200 S.O2    1  UNL1       -0.0533
     13  O3         2.1410    3.0280   -1.9580 O.2     1  UNL1       -0.1840
     14  O4         0.8300    1.0930   -2.5720 O.2     1  UNL1       -0.1840
     15  C6         2.7160    0.7410   -0.7820 C.ar    1  UNL1        0.1486
     16  C7         3.8990    1.2590   -0.2890 C.ar    1  UNL1        0.1875
     17  F1         4.0980    2.6010   -0.2930 F       1  UNL1       -0.2003
     18  C8         4.8720    0.4130    0.2050 C.ar    1  UNL1        0.1982
     19  F2         6.0500    0.8870    0.6990 F       1  UNL1       -0.1993
     20  C9         4.6860   -0.9640    0.2170 C.ar    1  UNL1        0.1992
     21  F3         5.6120   -1.8250    0.6910 F       1  UNL1       -0.1993
     22  C10        3.5100   -1.4970   -0.2720 C.ar    1  UNL1        0.1982
     23  F4         3.2870   -2.8500   -0.2770 F       1  UNL1       -0.1993
     24  C11        2.5550   -0.6300   -0.7590 C.ar    1  UNL1        0.1875
     25  F5         1.4000   -1.1430   -1.2400 F       1  UNL1       -0.2003
     26  C12       -1.7240    1.1670    0.1020 C.ar    1  UNL1       -0.0537
     27 H          -4.5281   -3.2036   -1.1897 H       1  UNL1        0.1456
     28 H          -3.1421   -2.2853   -1.2895 H       1  UNL1        0.1456
     29 H          -4.4458    0.7996    0.0404 H       1  UNL1        0.1747
     30 H          -2.7995   -0.7888    2.5810 H       1  UNL1        0.0636
     31 H          -0.5650   -0.3018    3.4051 H       1  UNL1        0.0618
     32 H           0.8783    1.0942    2.1266 H       1  UNL1        0.0606
     33 H          -2.0413    1.5660   -0.7953 H       1  UNL1        0.0624
@<TRIPOS>UNITY_ATOM_ATTR
11 1
charge -1
@<TRIPOS>BOND
     1     1     2    1
     2     2     3    2
     3     2     4    2
     4     2     5    1
     5     5     6    1
     6     6     7   ar
     7     6    26   ar
     8     7     8   ar
     9     8     9   ar
    10     9    10   ar
    11    10    11    1
    12    10    26   ar
    13    11    12    1
    14    12    13    2
    15    12    14    2
    16    12    15    1
    17    15    16   ar
    18    15    24   ar
    19    16    17    1
    20    16    18   ar
    21    18    19    1
    22    18    20   ar
    23    20    21    1
    24    20    22   ar
    25    22    23    1
    26    22    24   ar
    27    24    25    1
    28     1    27    1
    29     1    28    1
    30     5    29    1
    31     7    30    1
    32     8    31    1
    33     9    32    1
    34    26    33    1
@<TRIPOS>MOLECULE
../data/bude_mols_rdkit_confs_charged/molecule_91.pdb
 33 34 0 0 0
SMALL
GASTEIGER

@<TRIPOS>ATOM
      1  N1        -5.3070   -0.1180    2.2010 N.3     1  UNL1       -0.1906
      2  S1        -4.1920   -1.2910    1.6310 S.O2    1  UNL1        0.1067
      3  O1        -4.9310   -2.6170    1.5860 O.2     1  UNL1       -0.1383
      4  O2        -3.0890   -1.4200    2.6490 O.2     1  UNL1       -0.1383
      5  N2        -3.5880   -0.9410    0.0680 N.pl3   1  UNL1       -0.2068
      6  C1        -2.4100   -0.1610   -0.1650 C.ar    1  UNL1        0.0479
      7  C2        -2.1660    1.0200    0.5070 C.ar    1  UNL1       -0.0394
      8  C3        -1.0240    1.7820    0.2850 C.ar    1  UNL1       -0.0611
      9  C4        -0.0950    1.3490   -0.6410 C.ar    1  UNL1       -0.0760
     10  C5        -0.3070    0.1670   -1.3350 C.ar    1  UNL1       -0.1274
     11  N3         0.6510   -0.2970   -2.3010 N.pl3   1  UNL1       -0.5366
     12  S2         1.9340   -1.3330   -1.7900 S.O2    1  UNL1       -0.0533
     13  O3         2.7830   -1.6370   -3.0140 O.2     1  UNL1       -0.1840
     14  O4         1.4190   -2.6020   -1.2070 O.2     1  UNL1       -0.1840
     15  C6         2.8790   -0.4220   -0.6130 C.ar    1  UNL1        0.1486
     16  C7         3.9450    0.3630   -1.0200 C.ar    1  UNL1        0.1875
     17  F1         4.2160    0.3900   -2.3530 F       1  UNL1       -0.2003
     18  C8         4.7010    1.0870   -0.1150 C.ar    1  UNL1        0.1982
     19  F2         5.7230    1.8230   -0.6160 F       1  UNL1       -0.1993
     20  C9         4.3890    1.0280    1.2190 C.ar    1  UNL1        0.1992
     21  F3         5.1370    1.7420    2.0950 F       1  UNL1       -0.1993
     22  C10        3.3360    0.2600    1.6660 C.ar    1  UNL1        0.1982
     23  F4         3.0000    0.1790    2.9790 F       1  UNL1       -0.1993
     24  C11        2.5950   -0.4570    0.7310 C.ar    1  UNL1        0.1875
     25  F5         1.5520   -1.2240    1.1270 F       1  UNL1       -0.2003
     26  C12       -1.4520   -0.5630   -1.0880 C.ar    1  UNL1       -0.0537
     27 H          -5.6300   -0.3802    3.1323 H       1  UNL1        0.1456
     28 H          -6.1037   -0.0694    1.5660 H       1  UNL1        0.1456
     29 H          -4.0757   -1.2942   -0.7109 H       1  UNL1        0.1747
     30 H          -2.8565    1.3495    1.1996 H       1  UNL1        0.0636
     31 H          -0.8725    2.6601    0.8056 H       1  UNL1        0.0618
     32 H           0.7566    1.9049   -0.8164 H       1  UNL1        0.0606
     33 H          -1.6025   -1.4412   -1.6088 H       1  UNL1        0.0624
@<TRIPOS>UNITY_ATOM_ATTR
11 1
charge -1
@<TRIPOS>BOND
     1     1     2    1
     2     2     3    2
     3     2     4    2
     4     2     5    1
     5     5     6    1
     6     6     7   ar
     7     6    26   ar
     8     7     8   ar
     9     8     9   ar
    10     9    10   ar
    11    10    11    1
    12    10    26   ar
    13    11    12    1
    14    12    13    2
    15    12    14    2
    16    12    15    1
    17    15    16   ar
    18    15    24   ar
    19    16    17    1
    20    16    18   ar
    21    18    19    1
    22    18    20   ar
    23    20    21    1
    24    20    22   ar
    25    22    23    1
    26    22    24   ar
    27    24    25    1
    28     1    27    1
    29     1    28    1
    30     5    29    1
    31     7    30    1
    32     8    31    1
    33     9    32    1
    34    26    33    1
@<TRIPOS>MOLECULE
../data/bude_mols_rdkit_confs_charged/molecule_91.pdb
 33 34 0 0 0
SMALL
GASTEIGER

@<TRIPOS>ATOM
      1  N1         5.3440   -1.0550   -1.5020 N.3     1  UNL1       -0.1906
      2  S1         4.3050    0.3000   -1.5190 S.O2    1  UNL1        0.1067
      3  O1         3.2040    0.1110   -2.5460 O.2     1  UNL1       -0.1383
      4  O2         5.1050    1.5000   -1.9980 O.2     1  UNL1       -0.1383
      5  N2         3.6520    0.6180    0.0240 N.pl3   1  UNL1       -0.2068
      6  C1         2.4370    0.0590    0.4890 C.ar    1  UNL1        0.0479
      7  C2         2.1790   -1.2830    0.2970 C.ar    1  UNL1       -0.0394
      8  C3         0.9840   -1.7850    0.7650 C.ar    1  UNL1       -0.0611
      9  C4         0.0660   -0.9800    1.4090 C.ar    1  UNL1       -0.0760
     10  C5         0.3190    0.3810    1.6080 C.ar    1  UNL1       -0.1274
     11  N3        -0.6320    1.2020    2.2720 N.pl3   1  UNL1       -0.5366
     12  S2        -1.8610    2.0130    1.3380 S.O2    1  UNL1       -0.0533
     13  O3        -2.6580    2.9080    2.2420 O.2     1  UNL1       -0.1840
     14  O4        -1.1890    2.8830    0.3110 O.2     1  UNL1       -0.1840
     15  C6        -2.8820    0.8930    0.5080 C.ar    1  UNL1        0.1486
     16  C7        -4.0420    0.3990    1.1060 C.ar    1  UNL1        0.1875
     17  F1        -4.3810    0.7980    2.3570 F       1  UNL1       -0.2003
     18  C8        -4.8330   -0.4910    0.4200 C.ar    1  UNL1        0.1982
     19  F2        -5.9540   -0.9640    1.0070 F       1  UNL1       -0.1993
     20  C9        -4.5430   -0.9330   -0.8500 C.ar    1  UNL1        0.1992
     21  F3        -5.3500   -1.8150   -1.4990 F       1  UNL1       -0.1993
     22  C10       -3.3940   -0.4450   -1.4430 C.ar    1  UNL1        0.1982
     23  F4        -3.0360   -0.8290   -2.6890 F       1  UNL1       -0.1993
     24  C11       -2.5870    0.4470   -0.7740 C.ar    1  UNL1        0.1875
     25  F5        -1.4520    0.9420   -1.3370 F       1  UNL1       -0.2003
     26  C12        1.5150    0.8830    1.1390 C.ar    1  UNL1       -0.0537
     27 H           5.7131   -1.2122   -2.4398 H       1  UNL1        0.1456
     28 H           4.8240   -1.8784   -1.1988 H       1  UNL1        0.1456
     29 H           4.1463    1.2226    0.6235 H       1  UNL1        0.1747
     30 H           2.8602   -1.8921   -0.1825 H       1  UNL1        0.0636
     31 H           0.7705   -2.7857    0.6309 H       1  UNL1        0.0618
     32 H          -0.8191   -1.3880    1.7483 H       1  UNL1        0.0606
     33 H           1.7322    1.8833    1.2704 H       1  UNL1        0.0624
@<TRIPOS>UNITY_ATOM_ATTR
11 1
charge -1
@<TRIPOS>BOND
     1     1     2    1
     2     2     3    2
     3     2     4    2
     4     2     5    1
     5     5     6    1
     6     6     7   ar
     7     6    26   ar
     8     7     8   ar
     9     8     9   ar
    10     9    10   ar
    11    10    11    1
    12    10    26   ar
    13    11    12    1
    14    12    13    2
    15    12    14    2
    16    12    15    1
    17    15    16   ar
    18    15    24   ar
    19    16    17    1
    20    16    18   ar
    21    18    19    1
    22    18    20   ar
    23    20    21    1
    24    20    22   ar
    25    22    23    1
    26    22    24   ar
    27    24    25    1
    28     1    27    1
    29     1    28    1
    30     5    29    1
    31     7    30    1
    32     8    31    1
    33     9    32    1
    34    26    33    1
@<TRIPOS>MOLECULE
../data/bude_mols_rdkit_confs_charged/molecule_91.pdb
 33 34 0 0 0
SMALL
GASTEIGER

@<TRIPOS>ATOM
      1  N1         4.5890    1.4390   -1.9540 N.3     1  UNL1       -0.1906
      2  S1         2.8910    1.6440   -1.7320 S.O2    1  UNL1        0.1067
      3  O1         2.5640    3.0630   -2.1300 O.2     1  UNL1       -0.1383
      4  O2         2.1420    0.7500   -2.7020 O.2     1  UNL1       -0.1383
      5  N2         2.4070    1.3330   -0.1280 N.pl3   1  UNL1       -0.2068
      6  C1         2.0080    0.0290    0.3340 C.ar    1  UNL1        0.0479
      7  C2         2.7230   -1.1080    0.0130 C.ar    1  UNL1       -0.0394
      8  C3         2.2860   -2.3410    0.4890 C.ar    1  UNL1       -0.0611
      9  C4         1.1570   -2.4660    1.2760 C.ar    1  UNL1       -0.0760
     10  C5         0.4430   -1.3290    1.5960 C.ar    1  UNL1       -0.1274
     11  N3        -0.7230   -1.4380    2.4050 N.pl3   1  UNL1       -0.5366
     12  S2        -2.2920   -1.6830    1.7370 S.O2    1  UNL1       -0.0533
     13  O3        -3.3080   -1.8850    2.8230 O.2     1  UNL1       -0.1840
     14  O4        -2.2660   -2.9810    0.9400 O.2     1  UNL1       -0.1840
     15  C6        -2.7990   -0.4010    0.7020 C.ar    1  UNL1        0.1486
     16  C7        -2.4970   -0.4860   -0.6470 C.ar    1  UNL1        0.1875
     17  F1        -1.8200   -1.5510   -1.1360 F       1  UNL1       -0.2003
     18  C8        -2.8640    0.4920   -1.5440 C.ar    1  UNL1        0.1982
     19  F2        -2.5760    0.4250   -2.8720 F       1  UNL1       -0.1993
     20  C9        -3.5550    1.5980   -1.1020 C.ar    1  UNL1        0.1992
     21  F3        -3.9310    2.5780   -1.9570 F       1  UNL1       -0.1993
     22  C10       -3.8510    1.6770    0.2310 C.ar    1  UNL1        0.1982
     23  F4        -4.5280    2.7530    0.6860 F       1  UNL1       -0.1993
     24  C11       -3.4900    0.7120    1.1190 C.ar    1  UNL1        0.1875
     25  F5        -3.8010    0.8320    2.4160 F       1  UNL1       -0.2003
     26  C12        0.8860   -0.1110    1.1170 C.ar    1  UNL1       -0.0537
     27 H           4.8310    1.6351   -2.9253 H       1  UNL1        0.1456
     28 H           4.8483    0.4792   -1.7261 H       1  UNL1        0.1456
     29 H           2.3999    2.0802    0.5130 H       1  UNL1        0.1747
     30 H           3.5706   -1.0444   -0.5723 H       1  UNL1        0.0636
     31 H           2.8222   -3.1887    0.2464 H       1  UNL1        0.0618
     32 H           0.8537   -3.3913    1.6178 H       1  UNL1        0.0606
     33 H           0.3481    0.7359    1.3588 H       1  UNL1        0.0624
@<TRIPOS>UNITY_ATOM_ATTR
11 1
charge -1
@<TRIPOS>BOND
     1     1     2    1
     2     2     3    2
     3     2     4    2
     4     2     5    1
     5     5     6    1
     6     6     7   ar
     7     6    26   ar
     8     7     8   ar
     9     8     9   ar
    10     9    10   ar
    11    10    11    1
    12    10    26   ar
    13    11    12    1
    14    12    13    2
    15    12    14    2
    16    12    15    1
    17    15    16   ar
    18    15    24   ar
    19    16    17    1
    20    16    18   ar
    21    18    19    1
    22    18    20   ar
    23    20    21    1
    24    20    22   ar
    25    22    23    1
    26    22    24   ar
    27    24    25    1
    28     1    27    1
    29     1    28    1
    30     5    29    1
    31     7    30    1
    32     8    31    1
    33     9    32    1
    34    26    33    1
@<TRIPOS>MOLECULE
../data/bude_mols_rdkit_confs_charged/molecule_91.pdb
 33 34 0 0 0
SMALL
GASTEIGER

@<TRIPOS>ATOM
      1  N1         4.5500    1.8640   -0.4640 N.3     1  UNL1       -0.1906
      2  S1         2.8640    2.0550   -0.1390 S.O2    1  UNL1        0.1067
      3  O1         2.5530    3.4950    0.2360 O.2     1  UNL1       -0.1383
      4  O2         2.1440    1.7900   -1.4260 O.2     1  UNL1       -0.1383
      5  N2         2.3360    0.9840    1.0770 N.pl3   1  UNL1       -0.2068
      6  C1         1.8360   -0.3020    0.7530 C.ar    1  UNL1        0.0479
      7  C2         2.2870   -1.4250    1.4580 C.ar    1  UNL1       -0.0394
      8  C3         1.8430   -2.6930    1.1850 C.ar    1  UNL1       -0.0611
      9  C4         0.9270   -2.8810    0.1910 C.ar    1  UNL1       -0.0760
     10  C5         0.4460   -1.8130   -0.5370 C.ar    1  UNL1       -0.1274
     11  N3        -0.4980   -2.0820   -1.5490 N.pl3   1  UNL1       -0.5366
     12  S2        -2.2050   -2.0770   -1.2040 S.O2    1  UNL1       -0.0533
     13  O3        -2.9770   -2.3770   -2.4420 O.2     1  UNL1       -0.1840
     14  O4        -2.5120   -3.1030   -0.1430 O.2     1  UNL1       -0.1840
     15  C6        -2.6100   -0.4660   -0.6650 C.ar    1  UNL1        0.1486
     16  C7        -2.5780   -0.0500    0.6340 C.ar    1  UNL1        0.1875
     17  F1        -2.2030   -0.9520    1.5910 F       1  UNL1       -0.2003
     18  C8        -2.9130    1.2420    0.9740 C.ar    1  UNL1        0.1982
     19  F2        -2.8800    1.6520    2.2680 F       1  UNL1       -0.1993
     20  C9        -3.2910    2.1490    0.0030 C.ar    1  UNL1        0.1992
     21  F3        -3.6220    3.4230    0.3400 F       1  UNL1       -0.1993
     22  C10       -3.3320    1.7510   -1.3170 C.ar    1  UNL1        0.1982
     23  F4        -3.7040    2.6480   -2.2610 F       1  UNL1       -0.1993
     24  C11       -2.9920    0.4530   -1.6370 C.ar    1  UNL1        0.1875
     25  F5        -3.0410    0.0920   -2.9460 F       1  UNL1       -0.2003
     26  C12        0.9130   -0.5480   -0.2390 C.ar    1  UNL1       -0.0537
     27 H           4.8317    2.5181   -1.1942 H       1  UNL1        0.1456
     28 H           4.7304    0.9093   -0.7746 H       1  UNL1        0.1456
     29 H           2.3790    1.2632    2.0201 H       1  UNL1        0.1747
     30 H           2.9797   -1.2930    2.2115 H       1  UNL1        0.0636
     31 H           2.1979   -3.4972    1.7257 H       1  UNL1        0.0618
     32 H           0.5902   -3.8338   -0.0184 H       1  UNL1        0.0606
     33 H           0.5535    0.2504   -0.7853 H       1  UNL1        0.0624
@<TRIPOS>UNITY_ATOM_ATTR
11 1
charge -1
@<TRIPOS>BOND
     1     1     2    1
     2     2     3    2
     3     2     4    2
     4     2     5    1
     5     5     6    1
     6     6     7   ar
     7     6    26   ar
     8     7     8   ar
     9     8     9   ar
    10     9    10   ar
    11    10    11    1
    12    10    26   ar
    13    11    12    1
    14    12    13    2
    15    12    14    2
    16    12    15    1
    17    15    16   ar
    18    15    24   ar
    19    16    17    1
    20    16    18   ar
    21    18    19    1
    22    18    20   ar
    23    20    21    1
    24    20    22   ar
    25    22    23    1
    26    22    24   ar
    27    24    25    1
    28     1    27    1
    29     1    28    1
    30     5    29    1
    31     7    30    1
    32     8    31    1
    33     9    32    1
    34    26    33    1
@<TRIPOS>MOLECULE
../data/bude_mols_rdkit_confs_charged/molecule_91.pdb
 33 34 0 0 0
SMALL
GASTEIGER

@<TRIPOS>ATOM
      1  N1         5.4420    0.1260    1.4800 N.3     1  UNL1       -0.1906
      2  S1         5.0470    0.1160   -0.1990 S.O2    1  UNL1        0.1067
      3  O1         4.7990    1.5660   -0.5880 O.2     1  UNL1       -0.1383
      4  O2         6.1480   -0.4160   -1.0470 O.2     1  UNL1       -0.1383
      5  N2         3.5570   -0.7170   -0.4610 N.pl3   1  UNL1       -0.2068
      6  C1         2.3190   -0.0210   -0.4350 C.ar    1  UNL1        0.0479
      7  C2         2.0720    0.9000    0.5820 C.ar    1  UNL1       -0.0394
      8  C3         0.8840    1.5960    0.6440 C.ar    1  UNL1       -0.0611
      9  C4        -0.0700    1.3670   -0.3250 C.ar    1  UNL1       -0.0760
     10  C5         0.1620    0.4580   -1.3370 C.ar    1  UNL1       -0.1274
     11  N3        -0.8560    0.2490   -2.3260 N.pl3   1  UNL1       -0.5366
     12  S2        -2.0710   -0.9780   -2.0720 S.O2    1  UNL1       -0.0533
     13  O3        -2.9940   -0.9240   -3.2510 O.2     1  UNL1       -0.1840
     14  O4        -1.4520   -2.3410   -2.0030 O.2     1  UNL1       -0.1840
     15  C6        -3.0010   -0.6090   -0.6360 C.ar    1  UNL1        0.1486
     16  C7        -2.6440   -1.0630    0.6140 C.ar    1  UNL1        0.1875
     17  F1        -1.5350   -1.8220    0.7360 F       1  UNL1       -0.2003
     18  C8        -3.3870   -0.7630    1.7340 C.ar    1  UNL1        0.1982
     19  F2        -3.0470   -1.2040    2.9750 F       1  UNL1       -0.1993
     20  C9        -4.5360    0.0190    1.6310 C.ar    1  UNL1        0.1992
     21  F3        -5.2530    0.3020    2.7470 F       1  UNL1       -0.1993
     22  C10       -4.9070    0.4780    0.4050 C.ar    1  UNL1        0.1982
     23  F4        -6.0390    1.2460    0.3200 F       1  UNL1       -0.1993
     24  C11       -4.1550    0.1700   -0.6990 C.ar    1  UNL1        0.1875
     25  F5        -4.5600    0.6470   -1.8970 F       1  UNL1       -0.2003
     26  C12        1.3610   -0.2480   -1.4030 C.ar    1  UNL1       -0.0537
     27 H           6.3231    0.6207    1.6190 H       1  UNL1        0.1456
     28 H           5.5345   -0.8336    1.8132 H       1  UNL1        0.1456
     29 H           3.5658   -1.6867   -0.6306 H       1  UNL1        0.1747
     30 H           2.7926    1.0638    1.3023 H       1  UNL1        0.0636
     31 H           0.7117    2.2756    1.4013 H       1  UNL1        0.0618
     32 H          -0.9650    1.8798   -0.2931 H       1  UNL1        0.0606
     33 H           1.5300   -0.9277   -2.1609 H       1  UNL1        0.0624
@<TRIPOS>UNITY_ATOM_ATTR
11 1
charge -1
@<TRIPOS>BOND
     1     1     2    1
     2     2     3    2
     3     2     4    2
     4     2     5    1
     5     5     6    1
     6     6     7   ar
     7     6    26   ar
     8     7     8   ar
     9     8     9   ar
    10     9    10   ar
    11    10    11    1
    12    10    26   ar
    13    11    12    1
    14    12    13    2
    15    12    14    2
    16    12    15    1
    17    15    16   ar
    18    15    24   ar
    19    16    17    1
    20    16    18   ar
    21    18    19    1
    22    18    20   ar
    23    20    21    1
    24    20    22   ar
    25    22    23    1
    26    22    24   ar
    27    24    25    1
    28     1    27    1
    29     1    28    1
    30     5    29    1
    31     7    30    1
    32     8    31    1
    33     9    32    1
    34    26    33    1
@<TRIPOS>MOLECULE
../data/bude_mols_rdkit_confs_charged/molecule_91.pdb
 33 34 0 0 0
SMALL
GASTEIGER

@<TRIPOS>ATOM
      1  N1         2.4500    2.3810    1.3370 N.3     1  UNL1       -0.1906
      2  S1         3.4120    0.9510    1.5810 S.O2    1  UNL1        0.1067
      3  O1         4.2860    0.6770    0.4070 O.2     1  UNL1       -0.1383
      4  O2         4.2910    1.1590    2.7900 O.2     1  UNL1       -0.1383
      5  N2         2.3260   -0.3340    1.8940 N.pl3   1  UNL1       -0.2068
      6  C1         1.7920   -1.1550    0.8860 C.ar    1  UNL1        0.0479
      7  C2         2.6410   -1.6800   -0.0590 C.ar    1  UNL1       -0.0394
      8  C3         2.1100   -2.4940   -1.0420 C.ar    1  UNL1       -0.0611
      9  C4         0.7610   -2.7750   -1.0790 C.ar    1  UNL1       -0.0760
     10  C5        -0.1190   -2.2590   -0.1370 C.ar    1  UNL1       -0.1274
     11  N3        -1.5190   -2.5590   -0.1860 N.pl3   1  UNL1       -0.5366
     12  S2        -2.5090   -1.4900   -1.1050 S.O2    1  UNL1       -0.0533
     13  O3        -3.9310   -1.9600   -1.1480 O.2     1  UNL1       -0.1840
     14  O4        -1.9230   -1.4610   -2.5030 O.2     1  UNL1       -0.1840
     15  C6        -2.4920    0.1310   -0.4970 C.ar    1  UNL1        0.1486
     16  C7        -3.4410    0.4710    0.4530 C.ar    1  UNL1        0.1875
     17  F1        -4.3510   -0.4560    0.8840 F       1  UNL1       -0.2003
     18  C8        -3.5020    1.7400    0.9910 C.ar    1  UNL1        0.1982
     19  F2        -4.4250    2.0860    1.9210 F       1  UNL1       -0.1993
     20  C9        -2.6090    2.7140    0.5940 C.ar    1  UNL1        0.1992
     21  F3        -2.6440    3.9850    1.1110 F       1  UNL1       -0.1993
     22  C10       -1.6750    2.3620   -0.3480 C.ar    1  UNL1        0.1982
     23  F4        -0.7910    3.2990   -0.7530 F       1  UNL1       -0.1993
     24  C11       -1.6080    1.0900   -0.8940 C.ar    1  UNL1        0.1875
     25  F5        -0.6800    0.7550   -1.8240 F       1  UNL1       -0.2003
     26  C12        0.4230   -1.4520    0.8340 C.ar    1  UNL1       -0.0537
     27 H           3.0623    3.1743    1.1466 H       1  UNL1        0.1456
     28 H           1.9012    2.5688    2.1760 H       1  UNL1        0.1456
     29 H           2.0622   -0.5067    2.8266 H       1  UNL1        0.1747
     30 H           3.6514   -1.4713   -0.0352 H       1  UNL1        0.0636
     31 H           2.7330   -2.8974   -1.7590 H       1  UNL1        0.0618
     32 H           0.3954   -3.3851   -1.8267 H       1  UNL1        0.0606
     33 H          -0.2005   -1.0498    1.5513 H       1  UNL1        0.0624
@<TRIPOS>UNITY_ATOM_ATTR
11 1
charge -1
@<TRIPOS>BOND
     1     1     2    1
     2     2     3    2
     3     2     4    2
     4     2     5    1
     5     5     6    1
     6     6     7   ar
     7     6    26   ar
     8     7     8   ar
     9     8     9   ar
    10     9    10   ar
    11    10    11    1
    12    10    26   ar
    13    11    12    1
    14    12    13    2
    15    12    14    2
    16    12    15    1
    17    15    16   ar
    18    15    24   ar
    19    16    17    1
    20    16    18   ar
    21    18    19    1
    22    18    20   ar
    23    20    21    1
    24    20    22   ar
    25    22    23    1
    26    22    24   ar
    27    24    25    1
    28     1    27    1
    29     1    28    1
    30     5    29    1
    31     7    30    1
    32     8    31    1
    33     9    32    1
    34    26    33    1
@<TRIPOS>MOLECULE
../data/bude_mols_rdkit_confs_charged/molecule_91.pdb
 33 34 0 0 0
SMALL
GASTEIGER

@<TRIPOS>ATOM
      1  N1         5.8340    0.2360   -0.4390 N.3     1  UNL1       -0.1906
      2  S1         4.6750   -0.6660    0.4940 S.O2    1  UNL1        0.1067
      3  O1         5.4110   -1.8800    1.0210 O.2     1  UNL1       -0.1383
      4  O2         4.2110    0.1080    1.6750 O.2     1  UNL1       -0.1383
      5  N2         3.4030   -1.2010   -0.5200 N.pl3   1  UNL1       -0.2068
      6  C1         2.2110   -0.4280   -0.7560 C.ar    1  UNL1        0.0479
      7  C2         1.7740   -0.3380   -2.0750 C.ar    1  UNL1       -0.0394
      8  C3         0.6360    0.3930   -2.3470 C.ar    1  UNL1       -0.0611
      9  C4        -0.0320    1.0100   -1.3080 C.ar    1  UNL1       -0.0760
     10  C5         0.4090    0.9150   -0.0030 C.ar    1  UNL1       -0.1274
     11  N3        -0.2670    1.5450    1.0840 N.pl3   1  UNL1       -0.5366
     12  S2        -1.4910    0.6740    1.8990 S.O2    1  UNL1       -0.0533
     13  O3        -0.9550   -0.6220    2.4860 O.2     1  UNL1       -0.1840
     14  O4        -1.9790    1.4970    3.0620 O.2     1  UNL1       -0.1840
     15  C6        -2.8240    0.2470    0.8490 C.ar    1  UNL1        0.1486
     16  C7        -2.7800   -0.9620    0.1630 C.ar    1  UNL1        0.1875
     17  F1        -1.7370   -1.8190    0.2830 F       1  UNL1       -0.2003
     18  C8        -3.8350   -1.3000   -0.6670 C.ar    1  UNL1        0.1982
     19  F2        -3.8520   -2.4690   -1.3660 F       1  UNL1       -0.1993
     20  C9        -4.9350   -0.4650   -0.8340 C.ar    1  UNL1        0.1992
     21  F3        -5.9550   -0.8190   -1.6530 F       1  UNL1       -0.1993
     22  C10       -4.9830    0.7420   -0.1520 C.ar    1  UNL1        0.1982
     23  F4        -6.0630    1.5410   -0.3280 F       1  UNL1       -0.1993
     24  C11       -3.9250    1.0580    0.6670 C.ar    1  UNL1        0.1875
     25  F5        -3.9560    2.2320    1.3410 F       1  UNL1       -0.2003
     26  C12        1.5500    0.1830    0.2670 C.ar    1  UNL1       -0.0537
     27 H           6.5888    0.5519    0.1700 H       1  UNL1        0.1456
     28 H           5.3762    1.0443   -0.8603 H       1  UNL1        0.1456
     29 H           3.4905   -2.0766   -0.9616 H       1  UNL1        0.1747
     30 H           2.2911   -0.8087   -2.8340 H       1  UNL1        0.0636
     31 H           0.2884    0.4776   -3.3150 H       1  UNL1        0.0618
     32 H          -0.8833    1.5565   -1.5122 H       1  UNL1        0.0606
     33 H           1.8982    0.1000    1.2349 H       1  UNL1        0.0624
@<TRIPOS>UNITY_ATOM_ATTR
11 1
charge -1
@<TRIPOS>BOND
     1     1     2    1
     2     2     3    2
     3     2     4    2
     4     2     5    1
     5     5     6    1
     6     6     7   ar
     7     6    26   ar
     8     7     8   ar
     9     8     9   ar
    10     9    10   ar
    11    10    11    1
    12    10    26   ar
    13    11    12    1
    14    12    13    2
    15    12    14    2
    16    12    15    1
    17    15    16   ar
    18    15    24   ar
    19    16    17    1
    20    16    18   ar
    21    18    19    1
    22    18    20   ar
    23    20    21    1
    24    20    22   ar
    25    22    23    1
    26    22    24   ar
    27    24    25    1
    28     1    27    1
    29     1    28    1
    30     5    29    1
    31     7    30    1
    32     8    31    1
    33     9    32    1
    34    26    33    1
@<TRIPOS>MOLECULE
../data/bude_mols_rdkit_confs_charged/molecule_91.pdb
 33 34 0 0 0
SMALL
GASTEIGER

@<TRIPOS>ATOM
      1  N1        -3.7740    1.6690   -2.0640 N.3     1  UNL1       -0.1906
      2  S1        -4.4170    1.0740   -0.5540 S.O2    1  UNL1        0.1067
      3  O1        -4.1390    2.0930    0.5100 O.2     1  UNL1       -0.1383
      4  O2        -5.9160    0.9030   -0.7080 O.2     1  UNL1       -0.1383
      5  N2        -3.6890   -0.4460   -0.2620 N.pl3   1  UNL1       -0.2068
      6  C1        -2.4870   -0.5900    0.4560 C.ar    1  UNL1        0.0479
      7  C2        -2.2900    0.0890    1.6400 C.ar    1  UNL1       -0.0394
      8  C3        -1.0890   -0.1000    2.2930 C.ar    1  UNL1       -0.0611
      9  C4        -0.1180   -0.9380    1.7810 C.ar    1  UNL1       -0.0760
     10  C5        -0.3030   -1.6220    0.5990 C.ar    1  UNL1       -0.1274
     11  N3         0.6860   -2.4870    0.0610 N.pl3   1  UNL1       -0.5366
     12  S2         1.8550   -1.8140   -1.0180 S.O2    1  UNL1       -0.0533
     13  O3         1.1870   -1.1670   -2.2030 O.2     1  UNL1       -0.1840
     14  O4         2.8120   -2.8830   -1.4860 O.2     1  UNL1       -0.1840
     15  C6         2.8110   -0.5800   -0.2320 C.ar    1  UNL1        0.1486
     16  C7         2.3690    0.7380   -0.2800 C.ar    1  UNL1        0.1875
     17  F1         1.2080    1.0430   -0.9320 F       1  UNL1       -0.2003
     18  C8         3.0820    1.7560    0.3220 C.ar    1  UNL1        0.1982
     19  F2         2.6280    3.0350    0.2620 F       1  UNL1       -0.1993
     20  C9         4.2560    1.4800    0.9870 C.ar    1  UNL1        0.1992
     21  F3         4.9900    2.4620    1.5960 F       1  UNL1       -0.1993
     22  C10        4.6840    0.1650    1.0270 C.ar    1  UNL1        0.1982
     23  F4         5.8290   -0.1560    1.6660 F       1  UNL1       -0.1993
     24  C11        3.9820   -0.8610    0.4300 C.ar    1  UNL1        0.1875
     25  F5         4.4030   -2.1450    0.4700 F       1  UNL1       -0.2003
     26  C12       -1.5000   -1.4350   -0.0550 C.ar    1  UNL1       -0.0537
     27 H          -4.1858    2.5782   -2.2742 H       1  UNL1        0.1456
     28 H          -3.9993    1.0127   -2.8116 H       1  UNL1        0.1456
     29 H          -4.1294   -1.2544   -0.6109 H       1  UNL1        0.1747
     30 H          -3.0145    0.7158    2.0238 H       1  UNL1        0.0636
     31 H          -0.9130    0.3947    3.1815 H       1  UNL1        0.0618
     32 H           0.7684   -1.0549    2.2965 H       1  UNL1        0.0606
     33 H          -1.6717   -1.9309   -0.9436 H       1  UNL1        0.0624
@<TRIPOS>UNITY_ATOM_ATTR
11 1
charge -1
@<TRIPOS>BOND
     1     1     2    1
     2     2     3    2
     3     2     4    2
     4     2     5    1
     5     5     6    1
     6     6     7   ar
     7     6    26   ar
     8     7     8   ar
     9     8     9   ar
    10     9    10   ar
    11    10    11    1
    12    10    26   ar
    13    11    12    1
    14    12    13    2
    15    12    14    2
    16    12    15    1
    17    15    16   ar
    18    15    24   ar
    19    16    17    1
    20    16    18   ar
    21    18    19    1
    22    18    20   ar
    23    20    21    1
    24    20    22   ar
    25    22    23    1
    26    22    24   ar
    27    24    25    1
    28     1    27    1
    29     1    28    1
    30     5    29    1
    31     7    30    1
    32     8    31    1
    33     9    32    1
    34    26    33    1
