@<TRIPOS>MOLECULE
../data/bude_mols_rdkit_confs_charged/molecule_84.pdb
 35 36 0 0 0
SMALL
GASTEIGER

@<TRIPOS>ATOM
      1  C1        -3.9910    0.4340    0.1020 C.3     1  UNL1        0.0098
      2  N1        -2.5250    0.4670    0.1480 N.am    1  UNL1       -0.2588
      3  C2        -1.9100    1.6580    0.5580 C.2     1  UNL1        0.3037
      4  N2        -2.6570    2.8100    0.9180 N.am    1  UNL1       -0.3129
      5  O1        -0.6490    1.7130    0.6100 O.2     1  UNL1       -0.2525
      6  C3        -1.8040   -0.6990   -0.2180 C.ar    1  UNL1        0.0363
      7  C4        -2.2740   -1.4640   -1.2600 C.ar    1  UNL1       -0.0403
      8  C5        -1.6380   -2.6120   -1.6800 C.ar    1  UNL1       -0.0611
      9  C6        -0.4840   -2.9790   -1.0050 C.ar    1  UNL1       -0.0760
     10  C7         0.0150   -2.2350    0.0440 C.ar    1  UNL1       -0.1274
     11  N3         1.2050   -2.6420    0.7170 N.pl3   1  UNL1       -0.5366
     12  S1         2.7280   -2.0630    0.1330 S.O2    1  UNL1       -0.0533
     13  O2         2.7710   -2.4180   -1.3450 O.2     1  UNL1       -0.1840
     14  O3         3.8730   -2.7550    0.7730 O.2     1  UNL1       -0.1840
     15  C8         2.8420   -0.3180    0.2160 C.ar    1  UNL1        0.1486
     16  C9         3.3390    0.3390    1.3220 C.ar    1  UNL1        0.1875
     17  F1         3.7440   -0.4110    2.3640 F       1  UNL1       -0.2003
     18  C10        3.4290    1.7280    1.3850 C.ar    1  UNL1        0.1982
     19  F2         3.9160    2.3570    2.4660 F       1  UNL1       -0.1993
     20  C11        3.0150    2.4950    0.3200 C.ar    1  UNL1        0.1992
     21  F3         3.0760    3.8570    0.3120 F       1  UNL1       -0.1993
     22  C12        2.5140    1.8680   -0.7990 C.ar    1  UNL1        0.1982
     23  F4         2.1020    2.6390   -1.8590 F       1  UNL1       -0.1993
     24  C13        2.4320    0.4900   -0.8430 C.ar    1  UNL1        0.1875
     25  F5         1.9390   -0.1310   -1.9420 F       1  UNL1       -0.2003
     26  C14       -0.6610   -1.0760    0.4410 C.ar    1  UNL1       -0.0546
     27 H          -4.3788    1.3841    0.4050 H       1  UNL1        0.0433
     28 H          -4.3516   -0.3258    0.7635 H       1  UNL1        0.0433
     29 H          -4.3118    0.2197   -0.8960 H       1  UNL1        0.0433
     30 H          -3.6407    2.7890    0.8847 H       1  UNL1        0.1465
     31 H          -2.1914    3.6300    1.2010 H       1  UNL1        0.1465
     32 H          -3.1350   -1.1672   -1.7453 H       1  UNL1        0.0636
     33 H          -2.0050   -3.1745   -2.4635 H       1  UNL1        0.0618
     34 H           0.0162   -3.8336   -1.2957 H       1  UNL1        0.0606
     35 H          -0.3022   -0.5083    1.2245 H       1  UNL1        0.0624
@<TRIPOS>UNITY_ATOM_ATTR
11 1
charge -1
@<TRIPOS>BOND
     1     1     2    1
     2     2     3   am
     3     2     6    1
     4     3     4   am
     5     3     5    2
     6     6     7   ar
     7     6    26   ar
     8     7     8   ar
     9     8     9   ar
    10     9    10   ar
    11    10    11    1
    12    10    26   ar
    13    11    12    1
    14    12    13    2
    15    12    14    2
    16    12    15    1
    17    15    16   ar
    18    15    24   ar
    19    16    17    1
    20    16    18   ar
    21    18    19    1
    22    18    20   ar
    23    20    21    1
    24    20    22   ar
    25    22    23    1
    26    22    24   ar
    27    24    25    1
    28     1    27    1
    29     1    28    1
    30     1    29    1
    31     4    30    1
    32     4    31    1
    33     7    32    1
    34     8    33    1
    35     9    34    1
    36    26    35    1
@<TRIPOS>MOLECULE
../data/bude_mols_rdkit_confs_charged/molecule_84.pdb
 35 36 0 0 0
SMALL
GASTEIGER

@<TRIPOS>ATOM
      1  C1         4.1540   -0.6040   -2.1360 C.3     1  UNL1        0.0098
      2  N1         3.9580   -0.3000   -0.7460 N.am    1  UNL1       -0.2588
      3  C2         5.0670    0.1240    0.0220 C.2     1  UNL1        0.3037
      4  N2         4.9790    0.4390    1.4040 N.am    1  UNL1       -0.3129
      5  O1         6.2250    0.2510   -0.4970 O.2     1  UNL1       -0.2525
      6  C3         2.6820   -0.4310   -0.1610 C.ar    1  UNL1        0.0363
      7  C4         2.4660   -1.4580    0.7680 C.ar    1  UNL1       -0.0403
      8  C5         1.2430   -1.6300    1.3830 C.ar    1  UNL1       -0.0611
      9  C6         0.1860   -0.7960    1.1040 C.ar    1  UNL1       -0.0760
     10  C7         0.3540    0.2380    0.1880 C.ar    1  UNL1       -0.1274
     11  N3        -0.7020    1.0930   -0.0700 N.pl3   1  UNL1       -0.5366
     12  S1        -1.9430    1.0650   -1.1990 S.O2    1  UNL1       -0.0533
     13  O2        -1.7840    0.1180   -2.3410 O.2     1  UNL1       -0.1840
     14  O3        -2.0730    2.4700   -1.8090 O.2     1  UNL1       -0.1840
     15  C8        -3.4890    0.7480   -0.4560 C.ar    1  UNL1        0.1486
     16  C9        -3.9210   -0.5430   -0.3260 C.ar    1  UNL1        0.1875
     17  F1        -3.1670   -1.5990   -0.7650 F       1  UNL1       -0.2003
     18  C10       -5.1280   -0.8840    0.2470 C.ar    1  UNL1        0.1982
     19  F2        -5.5730   -2.1510    0.3780 F       1  UNL1       -0.1993
     20  C11       -5.9320    0.1310    0.7110 C.ar    1  UNL1        0.1992
     21  F3        -7.1530   -0.1390    1.2970 F       1  UNL1       -0.1993
     22  C12       -5.5140    1.4410    0.5890 C.ar    1  UNL1        0.1982
     23  F4        -6.3250    2.4300    1.0540 F       1  UNL1       -0.1993
     24  C13       -4.2970    1.7700    0.0090 C.ar    1  UNL1        0.1875
     25  F5        -3.8590    3.0220   -0.1260 F       1  UNL1       -0.2003
     26  C14        1.6000    0.3930   -0.4220 C.ar    1  UNL1       -0.0546
     27 H           5.1802   -0.4458   -2.3944 H       1  UNL1        0.0433
     28 H           3.5339    0.0332   -2.7313 H       1  UNL1        0.0433
     29 H           3.8939   -1.6259   -2.3177 H       1  UNL1        0.0433
     30 H           4.1161    0.3640    1.8720 H       1  UNL1        0.1465
     31 H           5.7809    0.7324    1.8940 H       1  UNL1        0.1465
     32 H           3.2401   -2.1008    0.9975 H       1  UNL1        0.0636
     33 H           1.1196   -2.3965    2.0629 H       1  UNL1        0.0618
     34 H          -0.7242   -0.9357    1.5700 H       1  UNL1        0.0606
     35 H           1.7209    1.1602   -1.1016 H       1  UNL1        0.0624
@<TRIPOS>UNITY_ATOM_ATTR
11 1
charge -1
@<TRIPOS>BOND
     1     1     2    1
     2     2     3   am
     3     2     6    1
     4     3     4   am
     5     3     5    2
     6     6     7   ar
     7     6    26   ar
     8     7     8   ar
     9     8     9   ar
    10     9    10   ar
    11    10    11    1
    12    10    26   ar
    13    11    12    1
    14    12    13    2
    15    12    14    2
    16    12    15    1
    17    15    16   ar
    18    15    24   ar
    19    16    17    1
    20    16    18   ar
    21    18    19    1
    22    18    20   ar
    23    20    21    1
    24    20    22   ar
    25    22    23    1
    26    22    24   ar
    27    24    25    1
    28     1    27    1
    29     1    28    1
    30     1    29    1
    31     4    30    1
    32     4    31    1
    33     7    32    1
    34     8    33    1
    35     9    34    1
    36    26    35    1
@<TRIPOS>MOLECULE
../data/bude_mols_rdkit_confs_charged/molecule_84.pdb
 35 36 0 0 0
SMALL
GASTEIGER

@<TRIPOS>ATOM
      1  C1        -1.8410    1.8860   -1.1270 C.3     1  UNL1        0.0098
      2  N1        -2.3960    0.8780   -0.2610 N.am    1  UNL1       -0.2588
      3  C2        -3.4070    1.2340    0.6540 C.2     1  UNL1        0.3037
      4  N2        -3.8930    2.5590    0.7420 N.am    1  UNL1       -0.3129
      5  O1        -3.8830    0.3580    1.4010 O.2     1  UNL1       -0.2525
      6  C3        -1.8820   -0.4430   -0.3790 C.ar    1  UNL1        0.0363
      7  C4        -2.4340   -1.3160   -1.3040 C.ar    1  UNL1       -0.0403
      8  C5        -1.9520   -2.5960   -1.4330 C.ar    1  UNL1       -0.0611
      9  C6        -0.9060   -3.0210   -0.6320 C.ar    1  UNL1       -0.0760
     10  C7        -0.3350   -2.1910    0.2920 C.ar    1  UNL1       -0.1274
     11  N3         0.7270   -2.5500    1.1380 N.pl3   1  UNL1       -0.5366
     12  S1         2.3850   -2.3720    0.7930 S.O2    1  UNL1       -0.0533
     13  O2         3.1540   -2.8560    2.0150 O.2     1  UNL1       -0.1840
     14  O3         2.8370   -3.1540   -0.4000 O.2     1  UNL1       -0.1840
     15  C8         2.7600   -0.6790    0.5620 C.ar    1  UNL1        0.1486
     16  C9         2.6910   -0.0700   -0.6780 C.ar    1  UNL1        0.1875
     17  F1         2.3240   -0.8110   -1.7360 F       1  UNL1       -0.2003
     18  C10        2.9920    1.2650   -0.8290 C.ar    1  UNL1        0.1982
     19  F2         2.9260    1.8640   -2.0410 F       1  UNL1       -0.1993
     20  C11        3.3710    2.0320    0.2580 C.ar    1  UNL1        0.1992
     21  F3         3.6720    3.3460    0.1380 F       1  UNL1       -0.1993
     22  C12        3.4470    1.4520    1.5020 C.ar    1  UNL1        0.1982
     23  F4         3.8180    2.2000    2.5640 F       1  UNL1       -0.1993
     24  C13        3.1430    0.1090    1.6440 C.ar    1  UNL1        0.1875
     25  F5         3.2340   -0.4090    2.8870 F       1  UNL1       -0.2003
     26  C14       -0.8410   -0.9070    0.3990 C.ar    1  UNL1       -0.0546
     27 H          -2.3162    2.8247   -0.9321 H       1  UNL1        0.0433
     28 H          -2.0041    1.6087   -2.1475 H       1  UNL1        0.0433
     29 H          -0.7903    1.9736   -0.9448 H       1  UNL1        0.0433
     30 H          -3.5236    3.2587    0.1562 H       1  UNL1        0.1465
     31 H          -4.6008    2.7818    1.3890 H       1  UNL1        0.1465
     32 H          -3.2145   -1.0012   -1.9013 H       1  UNL1        0.0636
     33 H          -2.3684   -3.2387   -2.1248 H       1  UNL1        0.0618
     34 H          -0.5500   -3.9842   -0.7345 H       1  UNL1        0.0606
     35 H          -0.4208   -0.2679    1.0918 H       1  UNL1        0.0624
@<TRIPOS>UNITY_ATOM_ATTR
11 1
charge -1
@<TRIPOS>BOND
     1     1     2    1
     2     2     3   am
     3     2     6    1
     4     3     4   am
     5     3     5    2
     6     6     7   ar
     7     6    26   ar
     8     7     8   ar
     9     8     9   ar
    10     9    10   ar
    11    10    11    1
    12    10    26   ar
    13    11    12    1
    14    12    13    2
    15    12    14    2
    16    12    15    1
    17    15    16   ar
    18    15    24   ar
    19    16    17    1
    20    16    18   ar
    21    18    19    1
    22    18    20   ar
    23    20    21    1
    24    20    22   ar
    25    22    23    1
    26    22    24   ar
    27    24    25    1
    28     1    27    1
    29     1    28    1
    30     1    29    1
    31     4    30    1
    32     4    31    1
    33     7    32    1
    34     8    33    1
    35     9    34    1
    36    26    35    1
@<TRIPOS>MOLECULE
../data/bude_mols_rdkit_confs_charged/molecule_84.pdb
 35 36 0 0 0
SMALL
GASTEIGER

@<TRIPOS>ATOM
      1  C1        -3.1530    1.5670    0.8430 C.3     1  UNL1        0.0098
      2  N1        -2.3660    1.1350   -0.2810 N.am    1  UNL1       -0.2588
      3  C2        -2.0220    2.0670   -1.2840 C.2     1  UNL1        0.3037
      4  N2        -2.4200    3.4280   -1.2470 N.am    1  UNL1       -0.3129
      5  O1        -1.3200    1.7350   -2.3020 O.2     1  UNL1       -0.2525
      6  C3        -1.9470   -0.2080   -0.3680 C.ar    1  UNL1        0.0363
      7  C4        -2.8070   -1.2550   -0.0110 C.ar    1  UNL1       -0.0403
      8  C5        -2.4340   -2.5810   -0.0830 C.ar    1  UNL1       -0.0611
      9  C6        -1.1640   -2.8900   -0.5250 C.ar    1  UNL1       -0.0760
     10  C7        -0.2830   -1.8940   -0.8870 C.ar    1  UNL1       -0.1274
     11  N3         1.0070   -2.2310   -1.3340 N.pl3   1  UNL1       -0.5366
     12  S1         2.3830   -2.4060   -0.3100 S.O2    1  UNL1       -0.0533
     13  O2         2.1300   -3.5410    0.6700 O.2     1  UNL1       -0.1840
     14  O3         3.5630   -2.8730   -1.1480 O.2     1  UNL1       -0.1840
     15  C8         2.7640   -0.9200    0.5150 C.ar    1  UNL1        0.1486
     16  C9         2.2180   -0.6290    1.7440 C.ar    1  UNL1        0.1875
     17  F1         1.3680   -1.5060    2.3280 F       1  UNL1       -0.2003
     18  C10        2.5270    0.5590    2.3980 C.ar    1  UNL1        0.1982
     19  F2         1.9970    0.8560    3.6040 F       1  UNL1       -0.1993
     20  C11        3.3940    1.4680    1.8140 C.ar    1  UNL1        0.1992
     21  F3         3.7320    2.6460    2.4090 F       1  UNL1       -0.1993
     22  C12        3.9530    1.1960    0.5810 C.ar    1  UNL1        0.1982
     23  F4         4.8050    2.0970    0.0160 F       1  UNL1       -0.1993
     24  C13        3.6340    0.0230   -0.0400 C.ar    1  UNL1        0.1875
     25  F5         4.1810   -0.2490   -1.2540 F       1  UNL1       -0.2003
     26  C14       -0.6900   -0.5760   -0.8020 C.ar    1  UNL1       -0.0546
     27 H          -3.3776    2.6083    0.7420 H       1  UNL1        0.0433
     28 H          -2.6025    1.4069    1.7465 H       1  UNL1        0.0433
     29 H          -4.0642    1.0072    0.8766 H       1  UNL1        0.0433
     30 H          -2.9623    3.7620   -0.4963 H       1  UNL1        0.1465
     31 H          -2.1539    4.0386   -1.9720 H       1  UNL1        0.1465
     32 H          -3.7574   -1.0249    0.3190 H       1  UNL1        0.0636
     33 H          -3.0924   -3.3279    0.1886 H       1  UNL1        0.0618
     34 H          -0.8707   -3.8776   -0.5852 H       1  UNL1        0.0606
     35 H          -0.0252    0.1647   -1.0748 H       1  UNL1        0.0624
@<TRIPOS>UNITY_ATOM_ATTR
11 1
charge -1
@<TRIPOS>BOND
     1     1     2    1
     2     2     3   am
     3     2     6    1
     4     3     4   am
     5     3     5    2
     6     6     7   ar
     7     6    26   ar
     8     7     8   ar
     9     8     9   ar
    10     9    10   ar
    11    10    11    1
    12    10    26   ar
    13    11    12    1
    14    12    13    2
    15    12    14    2
    16    12    15    1
    17    15    16   ar
    18    15    24   ar
    19    16    17    1
    20    16    18   ar
    21    18    19    1
    22    18    20   ar
    23    20    21    1
    24    20    22   ar
    25    22    23    1
    26    22    24   ar
    27    24    25    1
    28     1    27    1
    29     1    28    1
    30     1    29    1
    31     4    30    1
    32     4    31    1
    33     7    32    1
    34     8    33    1
    35     9    34    1
    36    26    35    1
@<TRIPOS>MOLECULE
../data/bude_mols_rdkit_confs_charged/molecule_84.pdb
 35 36 0 0 0
SMALL
GASTEIGER

@<TRIPOS>ATOM
      1  C1        -3.8320   -0.3370   -1.9410 C.3     1  UNL1        0.0098
      2  N1        -2.7740    0.2310   -1.1450 N.am    1  UNL1       -0.2588
      3  C2        -2.3430    1.5480   -1.4080 C.2     1  UNL1        0.3037
      4  N2        -1.3140    2.1980   -0.6780 N.am    1  UNL1       -0.3129
      5  O1        -2.8610    2.2560   -2.3390 O.2     1  UNL1       -0.2525
      6  C3        -2.1890   -0.5280   -0.1240 C.ar    1  UNL1        0.0363
      7  C4        -2.9060   -0.7440    1.0380 C.ar    1  UNL1       -0.0403
      8  C5        -2.3620   -1.4990    2.0740 C.ar    1  UNL1       -0.0611
      9  C6        -1.1020   -2.0460    1.9640 C.ar    1  UNL1       -0.0760
     10  C7        -0.3880   -1.8310    0.8070 C.ar    1  UNL1       -0.1274
     11  N3         0.8860   -2.3750    0.6600 N.pl3   1  UNL1       -0.5366
     12  S1         2.3950   -1.7510    1.0510 S.O2    1  UNL1       -0.0533
     13  O2         2.5890   -1.4810    2.5140 O.2     1  UNL1       -0.1840
     14  O3         3.4590   -2.7710    0.6700 O.2     1  UNL1       -0.1840
     15  C8         2.8300   -0.2810    0.2130 C.ar    1  UNL1        0.1486
     16  C9         3.4690   -0.2970   -1.0060 C.ar    1  UNL1        0.1875
     17  F1         3.7560   -1.4840   -1.5880 F       1  UNL1       -0.2003
     18  C10        3.8350    0.8660   -1.6720 C.ar    1  UNL1        0.1982
     19  F2         4.4640    0.8720   -2.8670 F       1  UNL1       -0.1993
     20  C11        3.5450    2.0790   -1.0870 C.ar    1  UNL1        0.1992
     21  F3         3.8860    3.2450   -1.7070 F       1  UNL1       -0.1993
     22  C12        2.9080    2.1190    0.1270 C.ar    1  UNL1        0.1982
     23  F4         2.6420    3.3410    0.6690 F       1  UNL1       -0.1993
     24  C13        2.5470    0.9380    0.7860 C.ar    1  UNL1        0.1875
     25  F5         1.9250    0.9970    1.9710 F       1  UNL1       -0.2003
     26  C14       -0.9120   -1.0840   -0.2300 C.ar    1  UNL1       -0.0546
     27 H          -4.1561    0.3793   -2.6668 H       1  UNL1        0.0433
     28 H          -4.6534   -0.5996   -1.3075 H       1  UNL1        0.0433
     29 H          -3.4723   -1.2126   -2.4399 H       1  UNL1        0.0433
     30 H          -0.8593    1.7271    0.0573 H       1  UNL1        0.1465
     31 H          -1.0549    3.1198   -0.9069 H       1  UNL1        0.1465
     32 H          -3.8515   -0.3427    1.1385 H       1  UNL1        0.0636
     33 H          -2.9097   -1.6508    2.9354 H       1  UNL1        0.0618
     34 H          -0.7019   -2.6054    2.7334 H       1  UNL1        0.0606
     35 H          -0.3572   -0.9359   -1.0875 H       1  UNL1        0.0624
@<TRIPOS>UNITY_ATOM_ATTR
11 1
charge -1
@<TRIPOS>BOND
     1     1     2    1
     2     2     3   am
     3     2     6    1
     4     3     4   am
     5     3     5    2
     6     6     7   ar
     7     6    26   ar
     8     7     8   ar
     9     8     9   ar
    10     9    10   ar
    11    10    11    1
    12    10    26   ar
    13    11    12    1
    14    12    13    2
    15    12    14    2
    16    12    15    1
    17    15    16   ar
    18    15    24   ar
    19    16    17    1
    20    16    18   ar
    21    18    19    1
    22    18    20   ar
    23    20    21    1
    24    20    22   ar
    25    22    23    1
    26    22    24   ar
    27    24    25    1
    28     1    27    1
    29     1    28    1
    30     1    29    1
    31     4    30    1
    32     4    31    1
    33     7    32    1
    34     8    33    1
    35     9    34    1
    36    26    35    1
@<TRIPOS>MOLECULE
../data/bude_mols_rdkit_confs_charged/molecule_84.pdb
 35 36 0 0 0
SMALL
GASTEIGER

@<TRIPOS>ATOM
      1  C1        -4.7140    0.5470   -0.2470 C.3     1  UNL1        0.0098
      2  N1        -3.2440    0.7510   -0.1670 N.am    1  UNL1       -0.2588
      3  C2        -2.7860    1.9950   -0.6140 C.2     1  UNL1        0.3037
      4  N2        -1.4250    2.3370   -0.6250 N.am    1  UNL1       -0.3129
      5  O1        -3.6120    2.8530   -1.0270 O.2     1  UNL1       -0.2525
      6  C3        -2.4940   -0.3270    0.3400 C.ar    1  UNL1        0.0363
      7  C4        -3.1180   -1.5500    0.6040 C.ar    1  UNL1       -0.0403
      8  C5        -2.4560   -2.6510    1.1000 C.ar    1  UNL1       -0.0611
      9  C6        -1.1140   -2.5700    1.3570 C.ar    1  UNL1       -0.0760
     10  C7        -0.4370   -1.3930    1.1200 C.ar    1  UNL1       -0.1274
     11  N3         0.9500   -1.3570    1.4110 N.pl3   1  UNL1       -0.5366
     12  S1         2.1210   -1.7700    0.1840 S.O2    1  UNL1       -0.0533
     13  O2         1.4330   -2.3840   -1.0240 O.2     1  UNL1       -0.1840
     14  O3         3.0340   -2.8270    0.7390 O.2     1  UNL1       -0.1840
     15  C8         3.0610   -0.3760   -0.2270 C.ar    1  UNL1        0.1486
     16  C9         4.2630   -0.1840    0.4630 C.ar    1  UNL1        0.1875
     17  F1         4.6680   -1.0930    1.4140 F       1  UNL1       -0.2003
     18  C10        5.0670    0.9060    0.2030 C.ar    1  UNL1        0.1982
     19  F2         6.2520    1.1040    0.8710 F       1  UNL1       -0.1993
     20  C11        4.6730    1.8150   -0.7500 C.ar    1  UNL1        0.1992
     21  F3         5.4870    2.8810   -0.9820 F       1  UNL1       -0.1993
     22  C12        3.4890    1.6500   -1.4470 C.ar    1  UNL1        0.1982
     23  F4         3.1840    2.5940   -2.3670 F       1  UNL1       -0.1993
     24  C13        2.7120    0.5500   -1.1630 C.ar    1  UNL1        0.1875
     25  F5         1.5590    0.3810   -1.8360 F       1  UNL1       -0.2003
     26  C14       -1.1470   -0.3070    0.6190 C.ar    1  UNL1       -0.0546
     27 H          -5.1751    1.4270   -0.6444 H       1  UNL1        0.0433
     28 H          -5.1009    0.3525    0.7315 H       1  UNL1        0.0433
     29 H          -4.9243   -0.2853   -0.8857 H       1  UNL1        0.0433
     30 H          -0.7525    1.6909   -0.3094 H       1  UNL1        0.1465
     31 H          -1.1427    3.2230   -0.9483 H       1  UNL1        0.1465
     32 H          -4.1296   -1.6321    0.4170 H       1  UNL1        0.0636
     33 H          -2.9674   -3.5298    1.2765 H       1  UNL1        0.0618
     34 H          -0.6092   -3.3900    1.7281 H       1  UNL1        0.0606
     35 H          -0.6306    0.5695    0.4455 H       1  UNL1        0.0624
@<TRIPOS>UNITY_ATOM_ATTR
11 1
charge -1
@<TRIPOS>BOND
     1     1     2    1
     2     2     3   am
     3     2     6    1
     4     3     4   am
     5     3     5    2
     6     6     7   ar
     7     6    26   ar
     8     7     8   ar
     9     8     9   ar
    10     9    10   ar
    11    10    11    1
    12    10    26   ar
    13    11    12    1
    14    12    13    2
    15    12    14    2
    16    12    15    1
    17    15    16   ar
    18    15    24   ar
    19    16    17    1
    20    16    18   ar
    21    18    19    1
    22    18    20   ar
    23    20    21    1
    24    20    22   ar
    25    22    23    1
    26    22    24   ar
    27    24    25    1
    28     1    27    1
    29     1    28    1
    30     1    29    1
    31     4    30    1
    32     4    31    1
    33     7    32    1
    34     8    33    1
    35     9    34    1
    36    26    35    1
@<TRIPOS>MOLECULE
../data/bude_mols_rdkit_confs_charged/molecule_84.pdb
 35 36 0 0 0
SMALL
GASTEIGER

@<TRIPOS>ATOM
      1  C1        -3.5130   -1.5070    1.6280 C.3     1  UNL1        0.0098
      2  N1        -3.5020   -0.3980    0.7140 N.am    1  UNL1       -0.2588
      3  C2        -4.7580    0.1410    0.3220 C.2     1  UNL1        0.3037
      4  N2        -4.8490    1.2350   -0.5810 N.am    1  UNL1       -0.3129
      5  O1        -5.8460   -0.3230    0.7530 O.2     1  UNL1       -0.2525
      6  C3        -2.2990    0.1680    0.1980 C.ar    1  UNL1        0.0363
      7  C4        -1.9660    1.4680    0.4330 C.ar    1  UNL1       -0.0403
      8  C5        -0.7980    2.0400   -0.0570 C.ar    1  UNL1       -0.0611
      9  C6         0.0520    1.2590   -0.8070 C.ar    1  UNL1       -0.0760
     10  C7        -0.2710   -0.0790   -1.0590 C.ar    1  UNL1       -0.1274
     11  N3         0.6250   -0.8350   -1.8290 N.pl3   1  UNL1       -0.5366
     12  S1         1.9310   -1.7590   -1.2400 S.O2    1  UNL1       -0.0533
     13  O2         1.3890   -2.7550   -0.2560 O.2     1  UNL1       -0.1840
     14  O3         2.5500   -2.5020   -2.3980 O.2     1  UNL1       -0.1840
     15  C8         3.1250   -0.7950   -0.4060 C.ar    1  UNL1        0.1486
     16  C9         3.0720   -0.5510    0.9510 C.ar    1  UNL1        0.1875
     17  F1         2.0440   -1.0880    1.6510 F       1  UNL1       -0.2003
     18  C10        4.0130    0.2110    1.6200 C.ar    1  UNL1        0.1982
     19  F2         3.9600    0.4510    2.9590 F       1  UNL1       -0.1993
     20  C11        5.0520    0.7500    0.8960 C.ar    1  UNL1        0.1992
     21  F3         5.9990    1.5040    1.5070 F       1  UNL1       -0.1993
     22  C12        5.1420    0.5310   -0.4600 C.ar    1  UNL1        0.1982
     23  F4         6.1690    1.0650   -1.1660 F       1  UNL1       -0.1993
     24  C13        4.1790   -0.2410   -1.1060 C.ar    1  UNL1        0.1875
     25  F5         4.2760   -0.4550   -2.4560 F       1  UNL1       -0.2003
     26  C14       -1.4360   -0.5890   -0.5510 C.ar    1  UNL1       -0.0546
     27 H          -4.5240   -1.7558    1.8748 H       1  UNL1        0.0433
     28 H          -2.9837   -1.2402    2.5188 H       1  UNL1        0.0433
     29 H          -3.0395   -2.3506    1.1709 H       1  UNL1        0.0433
     30 H          -4.0301    1.6381   -0.9500 H       1  UNL1        0.1465
     31 H          -5.7309    1.5896   -0.8374 H       1  UNL1        0.1465
     32 H          -2.6054    2.0501    0.9963 H       1  UNL1        0.0636
     33 H          -0.5729    3.0283    0.1371 H       1  UNL1        0.0618
     34 H           0.9258    1.6595   -1.1827 H       1  UNL1        0.0606
     35 H          -1.6720   -1.5760   -0.7383 H       1  UNL1        0.0624
@<TRIPOS>UNITY_ATOM_ATTR
11 1
charge -1
@<TRIPOS>BOND
     1     1     2    1
     2     2     3   am
     3     2     6    1
     4     3     4   am
     5     3     5    2
     6     6     7   ar
     7     6    26   ar
     8     7     8   ar
     9     8     9   ar
    10     9    10   ar
    11    10    11    1
    12    10    26   ar
    13    11    12    1
    14    12    13    2
    15    12    14    2
    16    12    15    1
    17    15    16   ar
    18    15    24   ar
    19    16    17    1
    20    16    18   ar
    21    18    19    1
    22    18    20   ar
    23    20    21    1
    24    20    22   ar
    25    22    23    1
    26    22    24   ar
    27    24    25    1
    28     1    27    1
    29     1    28    1
    30     1    29    1
    31     4    30    1
    32     4    31    1
    33     7    32    1
    34     8    33    1
    35     9    34    1
    36    26    35    1
@<TRIPOS>MOLECULE
../data/bude_mols_rdkit_confs_charged/molecule_84.pdb
 35 36 0 0 0
SMALL
GASTEIGER

@<TRIPOS>ATOM
      1  C1        -2.5600    0.9840   -1.5990 C.3     1  UNL1        0.0098
      2  N1        -2.4750    0.6770   -0.1800 N.am    1  UNL1       -0.2588
      3  C2        -2.9430    1.5930    0.7830 C.2     1  UNL1        0.3037
      4  N2        -3.5060    2.8380    0.4110 N.am    1  UNL1       -0.3129
      5  O1        -2.8600    1.3050    1.9970 O.2     1  UNL1       -0.2525
      6  C3        -1.9210   -0.5480    0.2320 C.ar    1  UNL1        0.0363
      7  C4        -2.5410   -1.2930    1.2150 C.ar    1  UNL1       -0.0403
      8  C5        -1.9640   -2.4940    1.5980 C.ar    1  UNL1       -0.0611
      9  C6        -0.8000   -2.9270    1.0090 C.ar    1  UNL1       -0.0760
     10  C7        -0.1590   -2.2100    0.0290 C.ar    1  UNL1       -0.1274
     11  N3         1.0190   -2.5940   -0.6100 N.pl3   1  UNL1       -0.5366
     12  S1         2.6110   -2.2610   -0.1960 S.O2    1  UNL1       -0.0533
     13  O2         3.0570   -2.8220    1.1170 O.2     1  UNL1       -0.1840
     14  O3         3.5230   -2.8670   -1.2550 O.2     1  UNL1       -0.1840
     15  C8         2.8610   -0.5320   -0.2340 C.ar    1  UNL1        0.1486
     16  C9         2.6500    0.2130    0.9070 C.ar    1  UNL1        0.1875
     17  F1         2.2530   -0.4050    2.0490 F       1  UNL1       -0.2003
     18  C10        2.8560    1.5860    0.8460 C.ar    1  UNL1        0.1982
     19  F2         2.6590    2.3520    1.9490 F       1  UNL1       -0.1993
     20  C11        3.2610    2.2370   -0.3060 C.ar    1  UNL1        0.1992
     21  F3         3.4480    3.5930   -0.3070 F       1  UNL1       -0.1993
     22  C12        3.4670    1.4750   -1.4370 C.ar    1  UNL1        0.1982
     23  F4         3.8630    2.1040   -2.5660 F       1  UNL1       -0.1993
     24  C13        3.2670    0.1040   -1.3960 C.ar    1  UNL1        0.1875
     25  F5         3.4740   -0.6400   -2.5230 F       1  UNL1       -0.2003
     26  C14       -0.7360   -1.0140   -0.3510 C.ar    1  UNL1       -0.0546
     27 H          -3.0042    1.9487   -1.7292 H       1  UNL1        0.0433
     28 H          -3.1605    0.2458   -2.0883 H       1  UNL1        0.0433
     29 H          -1.5778    0.9834   -2.0235 H       1  UNL1        0.0433
     30 H          -3.5789    3.0807   -0.5403 H       1  UNL1        0.1465
     31 H          -3.8245    3.4609    1.1037 H       1  UNL1        0.1465
     32 H          -3.4144   -0.9633    1.6549 H       1  UNL1        0.0636
     33 H          -2.4116   -3.0669    2.3304 H       1  UNL1        0.0618
     34 H          -0.3926   -3.8245    1.3148 H       1  UNL1        0.0606
     35 H          -0.2814   -0.4482   -1.0847 H       1  UNL1        0.0624
@<TRIPOS>UNITY_ATOM_ATTR
11 1
charge -1
@<TRIPOS>BOND
     1     1     2    1
     2     2     3   am
     3     2     6    1
     4     3     4   am
     5     3     5    2
     6     6     7   ar
     7     6    26   ar
     8     7     8   ar
     9     8     9   ar
    10     9    10   ar
    11    10    11    1
    12    10    26   ar
    13    11    12    1
    14    12    13    2
    15    12    14    2
    16    12    15    1
    17    15    16   ar
    18    15    24   ar
    19    16    17    1
    20    16    18   ar
    21    18    19    1
    22    18    20   ar
    23    20    21    1
    24    20    22   ar
    25    22    23    1
    26    22    24   ar
    27    24    25    1
    28     1    27    1
    29     1    28    1
    30     1    29    1
    31     4    30    1
    32     4    31    1
    33     7    32    1
    34     8    33    1
    35     9    34    1
    36    26    35    1
@<TRIPOS>MOLECULE
../data/bude_mols_rdkit_confs_charged/molecule_84.pdb
 35 36 0 0 0
SMALL
GASTEIGER

@<TRIPOS>ATOM
      1  C1        -4.3870    0.5740    0.3650 C.3     1  UNL1        0.0098
      2  N1        -2.9530    0.6580    0.0410 N.am    1  UNL1       -0.2588
      3  C2        -2.4540    1.9330   -0.1760 C.2     1  UNL1        0.3037
      4  N2        -3.2360    3.1240   -0.1050 N.am    1  UNL1       -0.3129
      5  O1        -1.2230    2.1200   -0.4600 O.2     1  UNL1       -0.2525
      6  C3        -2.2430   -0.5580   -0.0150 C.ar    1  UNL1        0.0363
      7  C4        -2.8780   -1.7560    0.3280 C.ar    1  UNL1       -0.0403
      8  C5        -2.2580   -2.9790    0.2940 C.ar    1  UNL1       -0.0611
      9  C6        -0.9510   -3.0450   -0.0950 C.ar    1  UNL1       -0.0760
     10  C7        -0.2650   -1.9120   -0.4450 C.ar    1  UNL1       -0.1274
     11  N3         1.1030   -1.9850   -0.8550 N.pl3   1  UNL1       -0.5366
     12  S1         2.3560   -1.8430    0.3080 S.O2    1  UNL1       -0.0533
     13  O2         3.3670   -2.9370    0.2400 O.2     1  UNL1       -0.1840
     14  O3         1.7800   -1.7810    1.7100 O.2     1  UNL1       -0.1840
     15  C8         3.2010   -0.3270   -0.0220 C.ar    1  UNL1        0.1486
     16  C9         4.3020   -0.3030   -0.8440 C.ar    1  UNL1        0.1875
     17  F1         4.7530   -1.4680   -1.4090 F       1  UNL1       -0.2003
     18  C10        4.9920    0.8520   -1.1350 C.ar    1  UNL1        0.1982
     19  F2         6.0850    0.8390   -1.9590 F       1  UNL1       -0.1993
     20  C11        4.5460    2.0320   -0.5670 C.ar    1  UNL1        0.1992
     21  F3         5.2060    3.1890   -0.8340 F       1  UNL1       -0.1993
     22  C12        3.4410    2.0590    0.2680 C.ar    1  UNL1        0.1982
     23  F4         3.0050    3.2200    0.8240 F       1  UNL1       -0.1993
     24  C13        2.7780    0.8570    0.5290 C.ar    1  UNL1        0.1875
     25  F5         1.6900    0.8920    1.3510 F       1  UNL1       -0.2003
     26  C14       -0.9290   -0.6980   -0.3960 C.ar    1  UNL1       -0.0546
     27 H          -4.8083    1.5575    0.3765 H       1  UNL1        0.0433
     28 H          -4.5094    0.1223    1.3272 H       1  UNL1        0.0433
     29 H          -4.8853   -0.0189   -0.3733 H       1  UNL1        0.0433
     30 H          -4.1956    3.0708    0.1086 H       1  UNL1        0.1465
     31 H          -2.8161    3.9991   -0.2696 H       1  UNL1        0.1465
     32 H          -3.8663   -1.7177    0.6226 H       1  UNL1        0.0636
     33 H          -2.7708   -3.8348    0.5580 H       1  UNL1        0.0618
     34 H          -0.4740   -3.9596   -0.1258 H       1  UNL1        0.0606
     35 H          -0.4071    0.1519   -0.6610 H       1  UNL1        0.0624
@<TRIPOS>UNITY_ATOM_ATTR
11 1
charge -1
@<TRIPOS>BOND
     1     1     2    1
     2     2     3   am
     3     2     6    1
     4     3     4   am
     5     3     5    2
     6     6     7   ar
     7     6    26   ar
     8     7     8   ar
     9     8     9   ar
    10     9    10   ar
    11    10    11    1
    12    10    26   ar
    13    11    12    1
    14    12    13    2
    15    12    14    2
    16    12    15    1
    17    15    16   ar
    18    15    24   ar
    19    16    17    1
    20    16    18   ar
    21    18    19    1
    22    18    20   ar
    23    20    21    1
    24    20    22   ar
    25    22    23    1
    26    22    24   ar
    27    24    25    1
    28     1    27    1
    29     1    28    1
    30     1    29    1
    31     4    30    1
    32     4    31    1
    33     7    32    1
    34     8    33    1
    35     9    34    1
    36    26    35    1
@<TRIPOS>MOLECULE
../data/bude_mols_rdkit_confs_charged/molecule_84.pdb
 35 36 0 0 0
SMALL
GASTEIGER

@<TRIPOS>ATOM
      1  C1         4.4080    1.5790   -0.9620 C.3     1  UNL1        0.0098
      2  N1         3.7540    0.3790   -0.4310 N.am    1  UNL1       -0.2588
      3  C2         4.3640   -0.8930   -0.5920 C.2     1  UNL1        0.3037
      4  N2         5.5900   -0.9840   -1.2790 N.am    1  UNL1       -0.3129
      5  O1         3.8370   -1.9490   -0.1360 O.2     1  UNL1       -0.2525
      6  C3         2.4950    0.4980    0.2500 C.ar    1  UNL1        0.0363
      7  C4         2.3730    0.4620    1.6220 C.ar    1  UNL1       -0.0403
      8  C5         1.1490    0.5850    2.2570 C.ar    1  UNL1       -0.0611
      9  C6        -0.0110    0.7500    1.5130 C.ar    1  UNL1       -0.0760
     10  C7         0.1010    0.7870    0.1480 C.ar    1  UNL1       -0.1274
     11  N3        -1.0400    0.9510   -0.6720 N.pl3   1  UNL1       -0.5366
     12  S1        -1.8830   -0.4710   -1.1910 S.O2    1  UNL1       -0.0533
     13  O2        -1.9870   -0.5610   -2.6850 O.2     1  UNL1       -0.1840
     14  O3        -1.1360   -1.7080   -0.7500 O.2     1  UNL1       -0.1840
     15  C8        -3.4310   -0.4280   -0.4090 C.ar    1  UNL1        0.1486
     16  C9        -3.5990   -1.0130    0.8160 C.ar    1  UNL1        0.1875
     17  F1        -2.5660   -1.6410    1.4350 F       1  UNL1       -0.2003
     18  C10       -4.8250   -0.9920    1.4740 C.ar    1  UNL1        0.1982
     19  F2        -5.0360   -1.5530    2.6780 F       1  UNL1       -0.1993
     20  C11       -5.8620   -0.3590    0.8440 C.ar    1  UNL1        0.1992
     21  F3        -7.0780   -0.3030    1.4320 F       1  UNL1       -0.1993
     22  C12       -5.7280    0.2430   -0.3940 C.ar    1  UNL1        0.1982
     23  F4        -6.7610    0.8660   -1.0070 F       1  UNL1       -0.1993
     24  C13       -4.4850    0.1960   -1.0130 C.ar    1  UNL1        0.1875
     25  F5        -4.3850    0.8000   -2.2370 F       1  UNL1       -0.2003
     26  C14        1.3220    0.6650   -0.4830 C.ar    1  UNL1       -0.0546
     27 H           5.3284    1.3045   -1.4335 H       1  UNL1        0.0433
     28 H           4.6067    2.2607   -0.1615 H       1  UNL1        0.0433
     29 H           3.7661    2.0476   -1.6784 H       1  UNL1        0.0433
     30 H           6.0134   -0.1718   -1.6400 H       1  UNL1        0.1465
     31 H           6.0236   -1.8598   -1.3982 H       1  UNL1        0.1465
     32 H           3.2223    0.3393    2.1953 H       1  UNL1        0.0636
     33 H           1.0989    0.5539    3.2873 H       1  UNL1        0.0618
     34 H          -0.9298    0.8420    1.9739 H       1  UNL1        0.0606
     35 H           1.3670    0.6980   -1.5135 H       1  UNL1        0.0624
@<TRIPOS>UNITY_ATOM_ATTR
11 1
charge -1
@<TRIPOS>BOND
     1     1     2    1
     2     2     3   am
     3     2     6    1
     4     3     4   am
     5     3     5    2
     6     6     7   ar
     7     6    26   ar
     8     7     8   ar
     9     8     9   ar
    10     9    10   ar
    11    10    11    1
    12    10    26   ar
    13    11    12    1
    14    12    13    2
    15    12    14    2
    16    12    15    1
    17    15    16   ar
    18    15    24   ar
    19    16    17    1
    20    16    18   ar
    21    18    19    1
    22    18    20   ar
    23    20    21    1
    24    20    22   ar
    25    22    23    1
    26    22    24   ar
    27    24    25    1
    28     1    27    1
    29     1    28    1
    30     1    29    1
    31     4    30    1
    32     4    31    1
    33     7    32    1
    34     8    33    1
    35     9    34    1
    36    26    35    1
@<TRIPOS>MOLECULE
../data/bude_mols_rdkit_confs_charged/molecule_84.pdb
 35 36 0 0 0
SMALL
GASTEIGER

@<TRIPOS>ATOM
      1  C1         4.6320   -1.4310   -0.7020 C.3     1  UNL1        0.0098
      2  N1         3.8520   -0.2770   -0.3820 N.am    1  UNL1       -0.2588
      3  C2         4.3360    1.0010   -0.7960 C.2     1  UNL1        0.3037
      4  N2         5.5560    1.1700   -1.5090 N.am    1  UNL1       -0.3129
      5  O1         3.6870    2.0500   -0.5380 O.2     1  UNL1       -0.2525
      6  C3         2.6340   -0.3360    0.3160 C.ar    1  UNL1        0.0363
      7  C4         2.5300   -1.0960    1.4550 C.ar    1  UNL1       -0.0403
      8  C5         1.3200   -1.1630    2.1610 C.ar    1  UNL1       -0.0611
      9  C6         0.2240   -0.4600    1.7050 C.ar    1  UNL1       -0.0760
     10  C7         0.2920    0.3080    0.5710 C.ar    1  UNL1       -0.1274
     11  N3        -0.8140    1.0590    0.0610 N.pl3   1  UNL1       -0.5366
     12  S1        -1.9470    0.4530   -1.0710 S.O2    1  UNL1       -0.0533
     13  O2        -1.5310   -0.9010   -1.5820 O.2     1  UNL1       -0.1840
     14  O3        -1.9450    1.3850   -2.2750 O.2     1  UNL1       -0.1840
     15  C8        -3.5730    0.3380   -0.4190 C.ar    1  UNL1        0.1486
     16  C9        -4.4360    1.4320   -0.5610 C.ar    1  UNL1        0.1875
     17  F1        -3.9570    2.5260   -1.2000 F       1  UNL1       -0.2003
     18  C10       -5.7260    1.4180   -0.0760 C.ar    1  UNL1        0.1982
     19  F2        -6.5480    2.4930   -0.2260 F       1  UNL1       -0.1993
     20  C11       -6.2220    0.3100    0.5770 C.ar    1  UNL1        0.1992
     21  F3        -7.4950    0.2800    1.0620 F       1  UNL1       -0.1993
     22  C12       -5.3800   -0.7770    0.7230 C.ar    1  UNL1        0.1982
     23  F4        -5.8690   -1.8650    1.3640 F       1  UNL1       -0.1993
     24  C13       -4.0690   -0.7620    0.2300 C.ar    1  UNL1        0.1875
     25  F5        -3.2540   -1.8470    0.3840 F       1  UNL1       -0.2003
     26  C14        1.5220    0.3440   -0.0980 C.ar    1  UNL1       -0.0546
     27 H           5.5111   -1.1312   -1.2332 H       1  UNL1        0.0433
     28 H           4.0548   -2.0935   -1.3126 H       1  UNL1        0.0433
     29 H           4.9140   -1.9323    0.2003 H       1  UNL1        0.0433
     30 H           6.1049    0.3855   -1.7382 H       1  UNL1        0.1465
     31 H           5.8510    2.0714   -1.7731 H       1  UNL1        0.1465
     32 H           3.3499   -1.6228    1.7947 H       1  UNL1        0.0636
     33 H           1.2499   -1.7351    3.0170 H       1  UNL1        0.0618
     34 H          -0.6644   -0.5132    2.2275 H       1  UNL1        0.0606
     35 H           1.5933    0.9171   -0.9533 H       1  UNL1        0.0624
@<TRIPOS>UNITY_ATOM_ATTR
11 1
charge -1
@<TRIPOS>BOND
     1     1     2    1
     2     2     3   am
     3     2     6    1
     4     3     4   am
     5     3     5    2
     6     6     7   ar
     7     6    26   ar
     8     7     8   ar
     9     8     9   ar
    10     9    10   ar
    11    10    11    1
    12    10    26   ar
    13    11    12    1
    14    12    13    2
    15    12    14    2
    16    12    15    1
    17    15    16   ar
    18    15    24   ar
    19    16    17    1
    20    16    18   ar
    21    18    19    1
    22    18    20   ar
    23    20    21    1
    24    20    22   ar
    25    22    23    1
    26    22    24   ar
    27    24    25    1
    28     1    27    1
    29     1    28    1
    30     1    29    1
    31     4    30    1
    32     4    31    1
    33     7    32    1
    34     8    33    1
    35     9    34    1
    36    26    35    1
@<TRIPOS>MOLECULE
../data/bude_mols_rdkit_confs_charged/molecule_84.pdb
 35 36 0 0 0
SMALL
GASTEIGER

@<TRIPOS>ATOM
      1  C1        -3.4480   -2.0100    0.5640 C.3     1  UNL1        0.0098
      2  N1        -3.4630   -0.6610    0.0210 N.am    1  UNL1       -0.2588
      3  C2        -4.6810   -0.0410   -0.2900 C.2     1  UNL1        0.3037
      4  N2        -4.7190    1.2710   -0.8200 N.am    1  UNL1       -0.3129
      5  O1        -5.7670   -0.6640   -0.0930 O.2     1  UNL1       -0.2525
      6  C3        -2.2380    0.0420   -0.1990 C.ar    1  UNL1        0.0363
      7  C4        -1.8860    0.5180   -1.4430 C.ar    1  UNL1       -0.0403
      8  C5        -0.6970    1.1980   -1.6480 C.ar    1  UNL1       -0.0611
      9  C6         0.1470    1.3960   -0.5750 C.ar    1  UNL1       -0.0760
     10  C7        -0.1960    0.9260    0.6630 C.ar    1  UNL1       -0.1274
     11  N3         0.6440    1.1080    1.7950 N.pl3   1  UNL1       -0.5366
     12  S1         1.8600   -0.0380    2.2360 S.O2    1  UNL1       -0.0533
     13  O2         2.5530    0.4970    3.4500 O.2     1  UNL1       -0.1840
     14  O3         1.2260   -1.3650    2.5140 O.2     1  UNL1       -0.1840
     15  C8         3.0220   -0.1510    0.9250 C.ar    1  UNL1        0.1486
     16  C9         4.1330    0.6700    0.8850 C.ar    1  UNL1        0.1875
     17  F1         4.2590    1.5610    1.9190 F       1  UNL1       -0.2003
     18  C10        5.0580    0.6000   -0.1320 C.ar    1  UNL1        0.1982
     19  F2         6.1330    1.4380   -0.1160 F       1  UNL1       -0.1993
     20  C11        4.9140   -0.3030   -1.1650 C.ar    1  UNL1        0.1992
     21  F3         5.8370   -0.3610   -2.1630 F       1  UNL1       -0.1993
     22  C12        3.8100   -1.1290   -1.1360 C.ar    1  UNL1        0.1982
     23  F4         3.6500   -2.0240   -2.1400 F       1  UNL1       -0.1993
     24  C13        2.8800   -1.0560   -0.1100 C.ar    1  UNL1        0.1875
     25  F5         1.7950   -1.8870   -0.1090 F       1  UNL1       -0.2003
     26  C14       -1.3840    0.2520    0.8460 C.ar    1  UNL1       -0.0546
     27 H          -4.4519   -2.3683    0.6567 H       1  UNL1        0.0433
     28 H          -2.9819   -2.0016    1.5271 H       1  UNL1        0.0433
     29 H          -2.8991   -2.6526   -0.0923 H       1  UNL1        0.0433
     30 H          -3.8808    1.7631   -0.9766 H       1  UNL1        0.1465
     31 H          -5.5836    1.6914   -1.0320 H       1  UNL1        0.1465
     32 H          -2.5229    0.3643   -2.2404 H       1  UNL1        0.0636
     33 H          -0.4472    1.5498   -2.5855 H       1  UNL1        0.0618
     34 H           1.0383    1.8993   -0.7064 H       1  UNL1        0.0606
     35 H          -1.6315   -0.0985    1.7846 H       1  UNL1        0.0624
@<TRIPOS>UNITY_ATOM_ATTR
11 1
charge -1
@<TRIPOS>BOND
     1     1     2    1
     2     2     3   am
     3     2     6    1
     4     3     4   am
     5     3     5    2
     6     6     7   ar
     7     6    26   ar
     8     7     8   ar
     9     8     9   ar
    10     9    10   ar
    11    10    11    1
    12    10    26   ar
    13    11    12    1
    14    12    13    2
    15    12    14    2
    16    12    15    1
    17    15    16   ar
    18    15    24   ar
    19    16    17    1
    20    16    18   ar
    21    18    19    1
    22    18    20   ar
    23    20    21    1
    24    20    22   ar
    25    22    23    1
    26    22    24   ar
    27    24    25    1
    28     1    27    1
    29     1    28    1
    30     1    29    1
    31     4    30    1
    32     4    31    1
    33     7    32    1
    34     8    33    1
    35     9    34    1
    36    26    35    1
@<TRIPOS>MOLECULE
../data/bude_mols_rdkit_confs_charged/molecule_84.pdb
 35 36 0 0 0
SMALL
GASTEIGER

@<TRIPOS>ATOM
      1  C1        -4.5000   -0.1770    1.4130 C.3     1  UNL1        0.0098
      2  N1        -3.2810   -0.7800    0.9360 N.am    1  UNL1       -0.2588
      3  C2        -3.3390   -2.0910    0.4200 C.2     1  UNL1        0.3037
      4  N2        -4.5420   -2.8200    0.3550 N.am    1  UNL1       -0.3129
      5  O1        -2.2770   -2.6170    0.0070 O.2     1  UNL1       -0.2525
      6  C3        -2.0620   -0.0630    0.9900 C.ar    1  UNL1        0.0363
      7  C4        -1.3480    0.1390    2.1560 C.ar    1  UNL1       -0.0403
      8  C5        -0.1620    0.8380    2.2070 C.ar    1  UNL1       -0.0611
      9  C6         0.3630    1.3770    1.0380 C.ar    1  UNL1       -0.0760
     10  C7        -0.3100    1.1990   -0.1320 C.ar    1  UNL1       -0.1274
     11  N3         0.1710    1.7220   -1.3510 N.pl3   1  UNL1       -0.5366
     12  S1         1.2030    0.9510   -2.4460 S.O2    1  UNL1       -0.0533
     13  O2         0.6420   -0.2920   -3.0520 O.2     1  UNL1       -0.1840
     14  O3         1.4870    1.9230   -3.5820 O.2     1  UNL1       -0.1840
     15  C8         2.7300    0.6090   -1.6610 C.ar    1  UNL1        0.1486
     16  C9         3.7630    1.5520   -1.7070 C.ar    1  UNL1        0.1875
     17  F1         3.5700    2.7200   -2.3600 F       1  UNL1       -0.2003
     18  C10        4.9850    1.3120   -1.0960 C.ar    1  UNL1        0.1982
     19  F2         6.0060    2.1960   -1.1190 F       1  UNL1       -0.1993
     20  C11        5.1800    0.1260   -0.4340 C.ar    1  UNL1        0.1992
     21  F3         6.3700   -0.1540    0.1840 F       1  UNL1       -0.1993
     22  C12        4.1810   -0.8050   -0.3790 C.ar    1  UNL1        0.1982
     23  F4         4.3680   -1.9850    0.2760 F       1  UNL1       -0.1993
     24  C13        2.9650   -0.5670   -0.9880 C.ar    1  UNL1        0.1875
     25  F5         1.9930   -1.4950   -0.9240 F       1  UNL1       -0.2003
     26  C14       -1.4980    0.4950   -0.1610 C.ar    1  UNL1       -0.0546
     27 H          -5.3098   -0.8657    1.2917 H       1  UNL1        0.0433
     28 H          -4.7010    0.7122    0.8528 H       1  UNL1        0.0433
     29 H          -4.3941    0.0702    2.4487 H       1  UNL1        0.0433
     30 H          -5.3803   -2.4161    0.6765 H       1  UNL1        0.1465
     31 H          -4.5448   -3.7336   -0.0119 H       1  UNL1        0.1465
     32 H          -1.7226   -0.2540    3.0336 H       1  UNL1        0.0636
     33 H           0.3322    0.9604    3.1047 H       1  UNL1        0.0618
     34 H           1.2499    1.9043    1.0568 H       1  UNL1        0.0606
     35 H          -1.9857    0.3769   -1.0628 H       1  UNL1        0.0624
@<TRIPOS>UNITY_ATOM_ATTR
11 1
charge -1
@<TRIPOS>BOND
     1     1     2    1
     2     2     3   am
     3     2     6    1
     4     3     4   am
     5     3     5    2
     6     6     7   ar
     7     6    26   ar
     8     7     8   ar
     9     8     9   ar
    10     9    10   ar
    11    10    11    1
    12    10    26   ar
    13    11    12    1
    14    12    13    2
    15    12    14    2
    16    12    15    1
    17    15    16   ar
    18    15    24   ar
    19    16    17    1
    20    16    18   ar
    21    18    19    1
    22    18    20   ar
    23    20    21    1
    24    20    22   ar
    25    22    23    1
    26    22    24   ar
    27    24    25    1
    28     1    27    1
    29     1    28    1
    30     1    29    1
    31     4    30    1
    32     4    31    1
    33     7    32    1
    34     8    33    1
    35     9    34    1
    36    26    35    1
@<TRIPOS>MOLECULE
../data/bude_mols_rdkit_confs_charged/molecule_84.pdb
 35 36 0 0 0
SMALL
GASTEIGER

@<TRIPOS>ATOM
      1  C1         4.4500    1.1440    0.0980 C.3     1  UNL1        0.0098
      2  N1         3.4920    0.4620    0.9260 N.am    1  UNL1       -0.2588
      3  C2         3.7060    0.4060    2.3090 C.2     1  UNL1        0.3037
      4  N2         2.7730   -0.2630    3.1370 N.am    1  UNL1       -0.3129
      5  O1         4.7060    0.9310    2.8480 O.2     1  UNL1       -0.2525
      6  C3         2.3610   -0.1340    0.3400 C.ar    1  UNL1        0.0363
      7  C4         2.0410   -1.4220    0.7250 C.ar    1  UNL1       -0.0403
      8  C5         0.9330   -2.0020    0.1480 C.ar    1  UNL1       -0.0611
      9  C6         0.1640   -1.3230   -0.7870 C.ar    1  UNL1       -0.0760
     10  C7         0.4760   -0.0320   -1.1800 C.ar    1  UNL1       -0.1274
     11  N3        -0.3410    0.6250   -2.1410 N.pl3   1  UNL1       -0.5366
     12  S1        -1.6980    1.5800   -1.7680 S.O2    1  UNL1       -0.0533
     13  O2        -2.3160    2.0870   -3.0390 O.2     1  UNL1       -0.1840
     14  O3        -1.3220    2.7870   -0.9540 O.2     1  UNL1       -0.1840
     15  C8        -2.9210    0.6140   -0.9490 C.ar    1  UNL1        0.1486
     16  C9        -3.8730   -0.0300   -1.7090 C.ar    1  UNL1        0.1875
     17  F1        -3.8540    0.0870   -3.0700 F       1  UNL1       -0.2003
     18  C10       -4.8370   -0.7910   -1.0730 C.ar    1  UNL1        0.1982
     19  F2        -5.7600   -1.4130   -1.8500 F       1  UNL1       -0.1993
     20  C11       -4.8320   -0.8930    0.3020 C.ar    1  UNL1        0.1992
     21  F3        -5.7900   -1.6450    0.8970 F       1  UNL1       -0.1993
     22  C12       -3.8700   -0.2400    1.0500 C.ar    1  UNL1        0.1982
     23  F4        -3.8930   -0.3590    2.3800 F       1  UNL1       -0.1993
     24  C13       -2.8980    0.5240    0.4410 C.ar    1  UNL1        0.1875
     25  F5        -1.9310    1.1830    1.1600 F       1  UNL1       -0.2003
     26  C14        1.5840    0.5490   -0.6030 C.ar    1  UNL1       -0.0546
     27 H           5.2378    1.5319    0.7094 H       1  UNL1        0.0433
     28 H           3.9680    1.9492   -0.4160 H       1  UNL1        0.0433
     29 H           4.8570    0.4583   -0.6155 H       1  UNL1        0.0433
     30 H           1.9770   -0.6853    2.7404 H       1  UNL1        0.1465
     31 H           2.9201   -0.3060    4.1095 H       1  UNL1        0.1465
     32 H           2.6110   -1.9304    1.4190 H       1  UNL1        0.0636
     33 H           0.6687   -2.9627    0.4168 H       1  UNL1        0.0618
     34 H          -0.6588   -1.7906   -1.1986 H       1  UNL1        0.0606
     35 H           1.8472    1.5099   -0.8722 H       1  UNL1        0.0624
@<TRIPOS>UNITY_ATOM_ATTR
11 1
charge -1
@<TRIPOS>BOND
     1     1     2    1
     2     2     3   am
     3     2     6    1
     4     3     4   am
     5     3     5    2
     6     6     7   ar
     7     6    26   ar
     8     7     8   ar
     9     8     9   ar
    10     9    10   ar
    11    10    11    1
    12    10    26   ar
    13    11    12    1
    14    12    13    2
    15    12    14    2
    16    12    15    1
    17    15    16   ar
    18    15    24   ar
    19    16    17    1
    20    16    18   ar
    21    18    19    1
    22    18    20   ar
    23    20    21    1
    24    20    22   ar
    25    22    23    1
    26    22    24   ar
    27    24    25    1
    28     1    27    1
    29     1    28    1
    30     1    29    1
    31     4    30    1
    32     4    31    1
    33     7    32    1
    34     8    33    1
    35     9    34    1
    36    26    35    1
@<TRIPOS>MOLECULE
../data/bude_mols_rdkit_confs_charged/molecule_84.pdb
 35 36 0 0 0
SMALL
GASTEIGER

@<TRIPOS>ATOM
      1  C1         1.5990   -2.4820   -0.1140 C.3     1  UNL1        0.0098
      2  N1         2.1860   -1.2820    0.4450 N.am    1  UNL1       -0.2588
      3  C2         3.1140   -1.4110    1.5030 C.2     1  UNL1        0.3037
      4  N2         3.6830   -0.2270    2.0450 N.am    1  UNL1       -0.3129
      5  O1         3.4130   -2.5470    1.9380 O.2     1  UNL1       -0.2525
      6  C3         1.8230    0.0140   -0.0770 C.ar    1  UNL1        0.0363
      7  C4         2.5840    0.5130   -1.1000 C.ar    1  UNL1       -0.0403
      8  C5         2.2700    1.7490   -1.6270 C.ar    1  UNL1       -0.0611
      9  C6         1.2030    2.4360   -1.1050 C.ar    1  UNL1       -0.0760
     10  C7         0.4230    1.9530   -0.0750 C.ar    1  UNL1       -0.1274
     11  N3        -0.6900    2.7130    0.4410 N.pl3   1  UNL1       -0.5366
     12  S1        -2.2120    2.3970   -0.3570 S.O2    1  UNL1       -0.0533
     13  O2        -2.0170    2.7870   -1.7970 O.2     1  UNL1       -0.1840
     14  O3        -3.2080    3.3400    0.2400 O.2     1  UNL1       -0.1840
     15  C8        -2.6830    0.7400   -0.1710 C.ar    1  UNL1        0.1486
     16  C9        -3.4600    0.4190    0.9350 C.ar    1  UNL1        0.1875
     17  F1        -3.8230    1.3780    1.8220 F       1  UNL1       -0.2003
     18  C10       -3.8500   -0.8840    1.1120 C.ar    1  UNL1        0.1982
     19  F2        -4.6190   -1.2710    2.1830 F       1  UNL1       -0.1993
     20  C11       -3.4740   -1.8310    0.2090 C.ar    1  UNL1        0.1992
     21  F3        -3.8740   -3.1230    0.4040 F       1  UNL1       -0.1993
     22  C12       -2.7000   -1.4950   -0.8880 C.ar    1  UNL1        0.1982
     23  F4        -2.3340   -2.4380   -1.7740 F       1  UNL1       -0.1993
     24  C13       -2.2990   -0.1930   -1.0820 C.ar    1  UNL1        0.1875
     25  F5        -1.5510    0.1710   -2.1290 F       1  UNL1       -0.2003
     26  C14        0.7600    0.7150    0.4320 C.ar    1  UNL1       -0.0546
     27 H           1.9855   -3.3393    0.3965 H       1  UNL1        0.0433
     28 H           1.8419   -2.5467   -1.1541 H       1  UNL1        0.0433
     29 H           0.5359   -2.4467    0.0025 H       1  UNL1        0.0433
     30 H           3.4285    0.6521    1.6823 H       1  UNL1        0.1465
     31 H           4.3317   -0.2859    2.7832 H       1  UNL1        0.1465
     32 H           3.3808   -0.0274   -1.4715 H       1  UNL1        0.0636
     33 H           2.8267    2.1489   -2.3985 H       1  UNL1        0.0618
     34 H           0.9727    3.3600   -1.5028 H       1  UNL1        0.0606
     35 H           0.2056    0.3117    1.2034 H       1  UNL1        0.0624
@<TRIPOS>UNITY_ATOM_ATTR
11 1
charge -1
@<TRIPOS>BOND
     1     1     2    1
     2     2     3   am
     3     2     6    1
     4     3     4   am
     5     3     5    2
     6     6     7   ar
     7     6    26   ar
     8     7     8   ar
     9     8     9   ar
    10     9    10   ar
    11    10    11    1
    12    10    26   ar
    13    11    12    1
    14    12    13    2
    15    12    14    2
    16    12    15    1
    17    15    16   ar
    18    15    24   ar
    19    16    17    1
    20    16    18   ar
    21    18    19    1
    22    18    20   ar
    23    20    21    1
    24    20    22   ar
    25    22    23    1
    26    22    24   ar
    27    24    25    1
    28     1    27    1
    29     1    28    1
    30     1    29    1
    31     4    30    1
    32     4    31    1
    33     7    32    1
    34     8    33    1
    35     9    34    1
    36    26    35    1
@<TRIPOS>MOLECULE
../data/bude_mols_rdkit_confs_charged/molecule_84.pdb
 35 36 0 0 0
SMALL
GASTEIGER

@<TRIPOS>ATOM
      1  C1         4.2400    2.1210    0.0920 C.3     1  UNL1        0.0098
      2  N1         3.5260    0.9310    0.5080 N.am    1  UNL1       -0.2588
      3  C2         4.2110   -0.2810    0.7200 C.2     1  UNL1        0.3037
      4  N2         3.4910   -1.4200    1.1240 N.am    1  UNL1       -0.3129
      5  O1         5.4410   -0.3460    0.5530 O.2     1  UNL1       -0.2525
      6  C3         2.1040    1.0230    0.6980 C.ar    1  UNL1        0.0363
      7  C4         1.5320    0.9270    1.9610 C.ar    1  UNL1       -0.0403
      8  C5         0.1660    1.0150    2.1450 C.ar    1  UNL1       -0.0611
      9  C6        -0.6800    1.2000    1.0820 C.ar    1  UNL1       -0.0760
     10  C7        -0.1360    1.2990   -0.1850 C.ar    1  UNL1       -0.1274
     11  N3        -0.9230    1.4890   -1.3240 N.pl3   1  UNL1       -0.5366
     12  S1        -1.5960    0.2640   -2.2930 S.O2    1  UNL1       -0.0533
     13  O2        -2.3610    0.8540   -3.4370 O.2     1  UNL1       -0.1840
     14  O3        -0.5720   -0.6610   -2.8810 O.2     1  UNL1       -0.1840
     15  C8        -2.7010   -0.7110   -1.3490 C.ar    1  UNL1        0.1486
     16  C9        -2.2530   -1.8310   -0.6720 C.ar    1  UNL1        0.1875
     17  F1        -0.9430   -2.2140   -0.7150 F       1  UNL1       -0.2003
     18  C10       -3.1820   -2.5520    0.0530 C.ar    1  UNL1        0.1982
     19  F2        -2.7490   -3.6590    0.7250 F       1  UNL1       -0.1993
     20  C11       -4.5100   -2.2060    0.1260 C.ar    1  UNL1        0.1992
     21  F3        -5.3860   -2.9510    0.8550 F       1  UNL1       -0.1993
     22  C12       -4.9040   -1.0820   -0.5670 C.ar    1  UNL1        0.1982
     23  F4        -6.2000   -0.6770   -0.5430 F       1  UNL1       -0.1993
     24  C13       -4.0330   -0.3160   -1.3100 C.ar    1  UNL1        0.1875
     25  F5        -4.4620    0.7900   -1.9820 F       1  UNL1       -0.2003
     26  C14        1.2340    1.2090   -0.3560 C.ar    1  UNL1       -0.0546
     27 H           5.2814    1.8960   -0.0063 H       1  UNL1        0.0433
     28 H           4.1088    2.8900    0.8244 H       1  UNL1        0.0433
     29 H           3.8571    2.4559   -0.8493 H       1  UNL1        0.0433
     30 H           2.5168   -1.3655    1.2555 H       1  UNL1        0.1465
     31 H           3.9613   -2.2716    1.2753 H       1  UNL1        0.1465
     32 H           2.1426    0.7866    2.7810 H       1  UNL1        0.0636
     33 H          -0.2240    0.9403    3.0975 H       1  UNL1        0.0618
     34 H          -1.7001    1.2639    1.2246 H       1  UNL1        0.0606
     35 H           1.6203    1.2840   -1.3100 H       1  UNL1        0.0624
@<TRIPOS>UNITY_ATOM_ATTR
11 1
charge -1
@<TRIPOS>BOND
     1     1     2    1
     2     2     3   am
     3     2     6    1
     4     3     4   am
     5     3     5    2
     6     6     7   ar
     7     6    26   ar
     8     7     8   ar
     9     8     9   ar
    10     9    10   ar
    11    10    11    1
    12    10    26   ar
    13    11    12    1
    14    12    13    2
    15    12    14    2
    16    12    15    1
    17    15    16   ar
    18    15    24   ar
    19    16    17    1
    20    16    18   ar
    21    18    19    1
    22    18    20   ar
    23    20    21    1
    24    20    22   ar
    25    22    23    1
    26    22    24   ar
    27    24    25    1
    28     1    27    1
    29     1    28    1
    30     1    29    1
    31     4    30    1
    32     4    31    1
    33     7    32    1
    34     8    33    1
    35     9    34    1
    36    26    35    1
@<TRIPOS>MOLECULE
../data/bude_mols_rdkit_confs_charged/molecule_84.pdb
 35 36 0 0 0
SMALL
GASTEIGER

@<TRIPOS>ATOM
      1  C1        -3.8230    0.1770    1.4170 C.3     1  UNL1        0.0098
      2  N1        -3.3970   -0.0480    0.0590 N.am    1  UNL1       -0.2588
      3  C2        -4.2990    0.1740   -1.0010 C.2     1  UNL1        0.3037
      4  N2        -5.6370    0.6110   -0.8140 N.am    1  UNL1       -0.3129
      5  O1        -3.9140   -0.0220   -2.1840 O.2     1  UNL1       -0.2525
      6  C3        -2.0820   -0.4870   -0.2100 C.ar    1  UNL1        0.0363
      7  C4        -1.6570   -1.7050    0.3190 C.ar    1  UNL1       -0.0403
      8  C5        -0.3740   -2.1390    0.0650 C.ar    1  UNL1       -0.0611
      9  C6         0.5010   -1.3960   -0.7010 C.ar    1  UNL1       -0.0760
     10  C7         0.1060   -0.1820   -1.2410 C.ar    1  UNL1       -0.1274
     11  N3         1.0270    0.5670   -2.0310 N.pl3   1  UNL1       -0.5366
     12  S1         2.0850    1.7410   -1.3380 S.O2    1  UNL1       -0.0533
     13  O2         1.2390    2.7870   -0.6810 O.2     1  UNL1       -0.1840
     14  O3         2.9630    2.3150   -2.4110 O.2     1  UNL1       -0.1840
     15  C8         3.1090    0.8960   -0.2100 C.ar    1  UNL1        0.1486
     16  C9         4.2990    0.3750   -0.6360 C.ar    1  UNL1        0.1875
     17  F1         4.7280    0.4960   -1.9360 F       1  UNL1       -0.2003
     18  C10        5.1420   -0.3110    0.2370 C.ar    1  UNL1        0.1982
     19  F2         6.3170   -0.8200   -0.2080 F       1  UNL1       -0.1993
     20  C11        4.7160   -0.4320    1.5300 C.ar    1  UNL1        0.1992
     21  F3         5.5350   -1.1020    2.3900 F       1  UNL1       -0.1993
     22  C12        3.5160    0.0840    1.9940 C.ar    1  UNL1        0.1982
     23  F4         3.1700   -0.0800    3.2890 F       1  UNL1       -0.1993
     24  C13        2.7300    0.7470    1.0940 C.ar    1  UNL1        0.1875
     25  F5         1.5570    1.2450    1.5620 F       1  UNL1       -0.2003
     26  C14       -1.1830    0.2290   -0.9710 C.ar    1  UNL1       -0.0546
     27 H          -4.8418    0.5039    1.4217 H       1  UNL1        0.0433
     28 H          -3.2056    0.9275    1.8648 H       1  UNL1        0.0433
     29 H          -3.7379   -0.7333    1.9730 H       1  UNL1        0.0433
     30 H          -5.9785    0.7761    0.0945 H       1  UNL1        0.1465
     31 H          -6.2232    0.7489   -1.5928 H       1  UNL1        0.1465
     32 H          -2.2963   -2.2753    0.8945 H       1  UNL1        0.0636
     33 H          -0.0602   -3.0407    0.4568 H       1  UNL1        0.0618
     34 H           1.4562   -1.7467   -0.8730 H       1  UNL1        0.0606
     35 H          -1.4943    1.1309   -1.3643 H       1  UNL1        0.0624
@<TRIPOS>UNITY_ATOM_ATTR
11 1
charge -1
@<TRIPOS>BOND
     1     1     2    1
     2     2     3   am
     3     2     6    1
     4     3     4   am
     5     3     5    2
     6     6     7   ar
     7     6    26   ar
     8     7     8   ar
     9     8     9   ar
    10     9    10   ar
    11    10    11    1
    12    10    26   ar
    13    11    12    1
    14    12    13    2
    15    12    14    2
    16    12    15    1
    17    15    16   ar
    18    15    24   ar
    19    16    17    1
    20    16    18   ar
    21    18    19    1
    22    18    20   ar
    23    20    21    1
    24    20    22   ar
    25    22    23    1
    26    22    24   ar
    27    24    25    1
    28     1    27    1
    29     1    28    1
    30     1    29    1
    31     4    30    1
    32     4    31    1
    33     7    32    1
    34     8    33    1
    35     9    34    1
    36    26    35    1
@<TRIPOS>MOLECULE
../data/bude_mols_rdkit_confs_charged/molecule_84.pdb
 35 36 0 0 0
SMALL
GASTEIGER

@<TRIPOS>ATOM
      1  C1        -4.6480   -0.4160    0.7150 C.3     1  UNL1        0.0098
      2  N1        -3.4520   -0.0460   -0.0340 N.am    1  UNL1       -0.2588
      3  C2        -3.5910    0.4440   -1.3560 C.2     1  UNL1        0.3037
      4  N2        -4.8660    0.5780   -1.9570 N.am    1  UNL1       -0.3129
      5  O1        -2.5610    0.7590   -1.9920 O.2     1  UNL1       -0.2525
      6  C3        -2.1820   -0.1900    0.5880 C.ar    1  UNL1        0.0363
      7  C4        -1.8730   -1.3810    1.2130 C.ar    1  UNL1       -0.0403
      8  C5        -0.6260   -1.4950    1.8110 C.ar    1  UNL1       -0.0611
      9  C6         0.2450   -0.4450    1.7670 C.ar    1  UNL1       -0.0760
     10  C7        -0.0380    0.7590    1.1480 C.ar    1  UNL1       -0.1274
     11  N3         0.8900    1.8370    1.1170 N.pl3   1  UNL1       -0.5366
     12  S1         2.0530    2.0690   -0.1170 S.O2    1  UNL1       -0.0533
     13  O2         1.3220    2.2870   -1.4120 O.2     1  UNL1       -0.1840
     14  O3         2.8160    3.3230    0.2000 O.2     1  UNL1       -0.1840
     15  C8         3.1920    0.7440   -0.2270 C.ar    1  UNL1        0.1486
     16  C9         2.9160   -0.3270   -1.0490 C.ar    1  UNL1        0.1875
     17  F1         1.7410   -0.2990   -1.7500 F       1  UNL1       -0.2003
     18  C10        3.7930   -1.3750   -1.1510 C.ar    1  UNL1        0.1982
     19  F2         3.5110   -2.4200   -1.9620 F       1  UNL1       -0.1993
     20  C11        4.9680   -1.3700   -0.4300 C.ar    1  UNL1        0.1992
     21  F3         5.8490   -2.3930   -0.5150 F       1  UNL1       -0.1993
     22  C12        5.2320   -0.2800    0.3960 C.ar    1  UNL1        0.1982
     23  F4         6.3760   -0.2530    1.1110 F       1  UNL1       -0.1993
     24  C13        4.3620    0.7700    0.5050 C.ar    1  UNL1        0.1875
     25  F5         4.6360    1.8290    1.3180 F       1  UNL1       -0.2003
     26  C14       -1.2920    0.8630    0.5500 C.ar    1  UNL1       -0.0546
     27 H          -5.5141   -0.2490    0.1092 H       1  UNL1        0.0433
     28 H          -4.7124    0.1800    1.6013 H       1  UNL1        0.0433
     29 H          -4.5948   -1.4503    0.9838 H       1  UNL1        0.0433
     30 H          -5.6755    0.3295   -1.4548 H       1  UNL1        0.1465
     31 H          -4.9430    0.9196   -2.8771 H       1  UNL1        0.1465
     32 H          -2.5476   -2.1617    1.2349 H       1  UNL1        0.0636
     33 H          -0.3581   -2.3705    2.2873 H       1  UNL1        0.0618
     34 H           1.1654   -0.5556    2.2206 H       1  UNL1        0.0606
     35 H          -1.5582    1.7385    0.0728 H       1  UNL1        0.0624
@<TRIPOS>UNITY_ATOM_ATTR
11 1
charge -1
@<TRIPOS>BOND
     1     1     2    1
     2     2     3   am
     3     2     6    1
     4     3     4   am
     5     3     5    2
     6     6     7   ar
     7     6    26   ar
     8     7     8   ar
     9     8     9   ar
    10     9    10   ar
    11    10    11    1
    12    10    26   ar
    13    11    12    1
    14    12    13    2
    15    12    14    2
    16    12    15    1
    17    15    16   ar
    18    15    24   ar
    19    16    17    1
    20    16    18   ar
    21    18    19    1
    22    18    20   ar
    23    20    21    1
    24    20    22   ar
    25    22    23    1
    26    22    24   ar
    27    24    25    1
    28     1    27    1
    29     1    28    1
    30     1    29    1
    31     4    30    1
    32     4    31    1
    33     7    32    1
    34     8    33    1
    35     9    34    1
    36    26    35    1
@<TRIPOS>MOLECULE
../data/bude_mols_rdkit_confs_charged/molecule_84.pdb
 35 36 0 0 0
SMALL
GASTEIGER

@<TRIPOS>ATOM
      1  C1         4.4450   -0.6340   -1.7220 C.3     1  UNL1        0.0098
      2  N1         3.4330    0.0460   -0.9430 N.am    1  UNL1       -0.2588
      3  C2         3.8180    1.1590   -0.1690 C.2     1  UNL1        0.3037
      4  N2         2.8710    1.8630    0.6170 N.am    1  UNL1       -0.3129
      5  O1         5.0020    1.5400   -0.1680 O.2     1  UNL1       -0.2525
      6  C3         2.0780   -0.4240   -0.9760 C.ar    1  UNL1        0.0363
      7  C4         1.2910   -0.3320   -2.1130 C.ar    1  UNL1       -0.0403
      8  C5        -0.0030   -0.7770   -2.1550 C.ar    1  UNL1       -0.0611
      9  C6        -0.5760   -1.3430   -1.0440 C.ar    1  UNL1       -0.0760
     10  C7         0.1750   -1.4510    0.1010 C.ar    1  UNL1       -0.1274
     11  N3        -0.3750   -2.0360    1.2950 N.pl3   1  UNL1       -0.5366
     12  S1        -1.1820   -0.9820    2.4280 S.O2    1  UNL1       -0.0533
     13  O2        -0.2590    0.1270    2.8520 O.2     1  UNL1       -0.1840
     14  O3        -1.6260   -1.7540    3.6220 O.2     1  UNL1       -0.1840
     15  C8        -2.5450   -0.2800    1.5720 C.ar    1  UNL1        0.1486
     16  C9        -3.7840   -0.8590    1.5530 C.ar    1  UNL1        0.1875
     17  F1        -3.9720   -2.0160    2.2170 F       1  UNL1       -0.2003
     18  C10       -4.8430   -0.2930    0.8750 C.ar    1  UNL1        0.1982
     19  F2        -6.0800   -0.8350    0.8310 F       1  UNL1       -0.1993
     20  C11       -4.6200    0.8940    0.2040 C.ar    1  UNL1        0.1992
     21  F3        -5.6330    1.4930   -0.4820 F       1  UNL1       -0.1993
     22  C12       -3.3800    1.4860    0.2150 C.ar    1  UNL1        0.1982
     23  F4        -3.1100    2.6490   -0.4280 F       1  UNL1       -0.1993
     24  C13       -2.3390    0.9020    0.8990 C.ar    1  UNL1        0.1875
     25  F5        -1.0990    1.4850    0.9160 F       1  UNL1       -0.2003
     26  C14        1.4700   -0.9970    0.1200 C.ar    1  UNL1       -0.0546
     27 H           5.3894   -0.1518   -1.5785 H       1  UNL1        0.0433
     28 H           4.1806   -0.5993   -2.7582 H       1  UNL1        0.0433
     29 H           4.5134   -1.6538   -1.4054 H       1  UNL1        0.0433
     30 H           1.9295    1.5754    0.6282 H       1  UNL1        0.1465
     31 H           3.1549    2.6394    1.1516 H       1  UNL1        0.1465
     32 H           1.6971    0.0893   -2.9630 H       1  UNL1        0.0636
     33 H          -0.5497   -0.6864   -3.0256 H       1  UNL1        0.0618
     34 H          -1.5509   -1.6805   -1.0682 H       1  UNL1        0.0606
     35 H           2.0122   -1.0887    0.9933 H       1  UNL1        0.0624
@<TRIPOS>UNITY_ATOM_ATTR
11 1
charge -1
@<TRIPOS>BOND
     1     1     2    1
     2     2     3   am
     3     2     6    1
     4     3     4   am
     5     3     5    2
     6     6     7   ar
     7     6    26   ar
     8     7     8   ar
     9     8     9   ar
    10     9    10   ar
    11    10    11    1
    12    10    26   ar
    13    11    12    1
    14    12    13    2
    15    12    14    2
    16    12    15    1
    17    15    16   ar
    18    15    24   ar
    19    16    17    1
    20    16    18   ar
    21    18    19    1
    22    18    20   ar
    23    20    21    1
    24    20    22   ar
    25    22    23    1
    26    22    24   ar
    27    24    25    1
    28     1    27    1
    29     1    28    1
    30     1    29    1
    31     4    30    1
    32     4    31    1
    33     7    32    1
    34     8    33    1
    35     9    34    1
    36    26    35    1
@<TRIPOS>MOLECULE
../data/bude_mols_rdkit_confs_charged/molecule_84.pdb
 35 36 0 0 0
SMALL
GASTEIGER

@<TRIPOS>ATOM
      1  C1         3.5840    1.7630   -0.9540 C.3     1  UNL1        0.0098
      2  N1         3.5100    0.5180   -0.2150 N.am    1  UNL1       -0.2588
      3  C2         4.6450   -0.2990   -0.1210 C.2     1  UNL1        0.3037
      4  N2         4.6470   -1.5310    0.5800 N.am    1  UNL1       -0.3129
      5  O1         5.7140    0.0620   -0.6770 O.2     1  UNL1       -0.2525
      6  C3         2.2570    0.1840    0.3880 C.ar    1  UNL1        0.0363
      7  C4         1.8000    0.7620    1.5540 C.ar    1  UNL1       -0.0403
      8  C5         0.5830    0.4220    2.1150 C.ar    1  UNL1       -0.0611
      9  C6        -0.2320   -0.5180    1.5260 C.ar    1  UNL1       -0.0760
     10  C7         0.2090   -1.1070    0.3560 C.ar    1  UNL1       -0.1274
     11  N3        -0.6090   -2.0830   -0.2770 N.pl3   1  UNL1       -0.5366
     12  S1        -1.7710   -1.6060   -1.4510 S.O2    1  UNL1       -0.0533
     13  O2        -2.4190   -2.8720   -1.9850 O.2     1  UNL1       -0.1840
     14  O3        -1.0490   -0.8800   -2.5560 O.2     1  UNL1       -0.1840
     15  C8        -2.9850   -0.5430   -0.8180 C.ar    1  UNL1        0.1486
     16  C9        -4.1670   -1.0280   -0.2700 C.ar    1  UNL1        0.1875
     17  F1        -4.3110   -2.3740   -0.2580 F       1  UNL1       -0.2003
     18  C10       -5.1400   -0.1900    0.2370 C.ar    1  UNL1        0.1982
     19  F2        -6.2830   -0.6910    0.7660 F       1  UNL1       -0.1993
     20  C11       -4.9390    1.1840    0.2000 C.ar    1  UNL1        0.1992
     21  F3        -5.9250    1.9560    0.7100 F       1  UNL1       -0.1993
     22  C12       -3.7830    1.6910   -0.3350 C.ar    1  UNL1        0.1982
     23  F4        -3.6160    3.0410   -0.3570 F       1  UNL1       -0.1993
     24  C13       -2.8100    0.8230   -0.8420 C.ar    1  UNL1        0.1875
     25  F5        -1.6810    1.3750   -1.3620 F       1  UNL1       -0.2003
     26  C14        1.4320   -0.7560   -0.1940 C.ar    1  UNL1       -0.0546
     27 H           4.5711    1.8856   -1.3483 H       1  UNL1        0.0433
     28 H           3.3569    2.5795   -0.3008 H       1  UNL1        0.0433
     29 H           2.8786    1.7428   -1.7583 H       1  UNL1        0.0433
     30 H           3.8277   -1.8443    1.0270 H       1  UNL1        0.1465
     31 H           5.4677   -2.0733    0.6199 H       1  UNL1        0.1465
     32 H           2.3853    1.4710    2.0227 H       1  UNL1        0.0636
     33 H           0.2809    0.8801    2.9890 H       1  UNL1        0.0618
     34 H          -1.1405   -0.7740    1.9434 H       1  UNL1        0.0606
     35 H           1.7355   -1.2132   -1.0680 H       1  UNL1        0.0624
@<TRIPOS>UNITY_ATOM_ATTR
11 1
charge -1
@<TRIPOS>BOND
     1     1     2    1
     2     2     3   am
     3     2     6    1
     4     3     4   am
     5     3     5    2
     6     6     7   ar
     7     6    26   ar
     8     7     8   ar
     9     8     9   ar
    10     9    10   ar
    11    10    11    1
    12    10    26   ar
    13    11    12    1
    14    12    13    2
    15    12    14    2
    16    12    15    1
    17    15    16   ar
    18    15    24   ar
    19    16    17    1
    20    16    18   ar
    21    18    19    1
    22    18    20   ar
    23    20    21    1
    24    20    22   ar
    25    22    23    1
    26    22    24   ar
    27    24    25    1
    28     1    27    1
    29     1    28    1
    30     1    29    1
    31     4    30    1
    32     4    31    1
    33     7    32    1
    34     8    33    1
    35     9    34    1
    36    26    35    1
@<TRIPOS>MOLECULE
../data/bude_mols_rdkit_confs_charged/molecule_84.pdb
 35 36 0 0 0
SMALL
GASTEIGER

@<TRIPOS>ATOM
      1  C1         3.6090    2.3980    0.0510 C.3     1  UNL1        0.0098
      2  N1         3.8400    0.9540   -0.0640 N.am    1  UNL1       -0.2588
      3  C2         5.1800    0.5100   -0.0790 C.2     1  UNL1        0.3037
      4  N2         5.6050   -0.8390   -0.1930 N.am    1  UNL1       -0.3129
      5  O1         6.1550    1.3370    0.0140 O.2     1  UNL1       -0.2525
      6  C3         2.6940    0.1420   -0.1530 C.ar    1  UNL1        0.0363
      7  C4         2.6720   -1.1910    0.1810 C.ar    1  UNL1       -0.0403
      8  C5         1.5350   -1.9870    0.0880 C.ar    1  UNL1       -0.0611
      9  C6         0.3620   -1.4330   -0.3590 C.ar    1  UNL1       -0.0760
     10  C7         0.3260   -0.1030   -0.7070 C.ar    1  UNL1       -0.1274
     11  N3        -0.9000    0.4550   -1.1610 N.pl3   1  UNL1       -0.5366
     12  S1        -2.0570    1.1560   -0.0970 S.O2    1  UNL1       -0.0533
     13  O2        -2.3440    2.5520   -0.5690 O.2     1  UNL1       -0.1840
     14  O3        -1.4910    1.2850    1.3080 O.2     1  UNL1       -0.1840
     15  C8        -3.5330    0.2450   -0.0380 C.ar    1  UNL1        0.1486
     16  C9        -3.7900   -0.7760    0.8390 C.ar    1  UNL1        0.1875
     17  F1        -2.8390   -1.1230    1.7400 F       1  UNL1       -0.2003
     18  C10       -4.9740   -1.4810    0.8610 C.ar    1  UNL1        0.1982
     19  F2        -5.2090   -2.4800    1.7320 F       1  UNL1       -0.1993
     20  C11       -5.9620   -1.1370   -0.0590 C.ar    1  UNL1        0.1992
     21  F3        -7.1330   -1.8130   -0.0600 F       1  UNL1       -0.1993
     22  C12       -5.7470   -0.1140   -0.9630 C.ar    1  UNL1        0.1982
     23  F4        -6.7250    0.2080   -1.8550 F       1  UNL1       -0.1993
     24  C13       -4.5440    0.5610   -0.9430 C.ar    1  UNL1        0.1875
     25  F5        -4.3310    1.5550   -1.8210 F       1  UNL1       -0.2003
     26  C14        1.4700    0.6620   -0.6040 C.ar    1  UNL1       -0.0546
     27 H           4.5489    2.9059    0.1109 H       1  UNL1        0.0433
     28 H           3.0382    2.5987    0.9335 H       1  UNL1        0.0433
     29 H           3.0714    2.7427   -0.8075 H       1  UNL1        0.0433
     30 H           4.9391   -1.5600   -0.2706 H       1  UNL1        0.1465
     31 H           6.5657   -1.0540   -0.1945 H       1  UNL1        0.1465
     32 H           3.5455   -1.6245    0.5188 H       1  UNL1        0.0636
     33 H           1.5733   -2.9838    0.3524 H       1  UNL1        0.0618
     34 H          -0.4892   -2.0116   -0.4337 H       1  UNL1        0.0606
     35 H           1.4240    1.6582   -0.8696 H       1  UNL1        0.0624
@<TRIPOS>UNITY_ATOM_ATTR
11 1
charge -1
@<TRIPOS>BOND
     1     1     2    1
     2     2     3   am
     3     2     6    1
     4     3     4   am
     5     3     5    2
     6     6     7   ar
     7     6    26   ar
     8     7     8   ar
     9     8     9   ar
    10     9    10   ar
    11    10    11    1
    12    10    26   ar
    13    11    12    1
    14    12    13    2
    15    12    14    2
    16    12    15    1
    17    15    16   ar
    18    15    24   ar
    19    16    17    1
    20    16    18   ar
    21    18    19    1
    22    18    20   ar
    23    20    21    1
    24    20    22   ar
    25    22    23    1
    26    22    24   ar
    27    24    25    1
    28     1    27    1
    29     1    28    1
    30     1    29    1
    31     4    30    1
    32     4    31    1
    33     7    32    1
    34     8    33    1
    35     9    34    1
    36    26    35    1
@<TRIPOS>MOLECULE
../data/bude_mols_rdkit_confs_charged/molecule_84.pdb
 35 36 0 0 0
SMALL
GASTEIGER

@<TRIPOS>ATOM
      1  C1        -3.8470    0.2110    1.3950 C.3     1  UNL1        0.0098
      2  N1        -2.7230    0.5710    0.5460 N.am    1  UNL1       -0.2588
      3  C2        -2.2560    1.8770    0.3480 C.2     1  UNL1        0.3037
      4  N2        -1.1520    2.1230   -0.4880 N.am    1  UNL1       -0.3129
      5  O1        -2.8210    2.8340    0.9170 O.2     1  UNL1       -0.2525
      6  C3        -2.0670   -0.5050   -0.1170 C.ar    1  UNL1        0.0363
      7  C4        -2.5930   -1.0400   -1.2890 C.ar    1  UNL1       -0.0403
      8  C5        -1.9370   -2.0840   -1.8980 C.ar    1  UNL1       -0.0611
      9  C6        -0.7640   -2.6430   -1.4040 C.ar    1  UNL1       -0.0760
     10  C7        -0.2700   -2.0910   -0.2450 C.ar    1  UNL1       -0.1274
     11  N3         0.9250   -2.6160    0.3190 N.pl3   1  UNL1       -0.5366
     12  S1         2.4780   -2.0320   -0.0810 S.O2    1  UNL1       -0.0533
     13  O2         3.4950   -2.9030    0.6210 O.2     1  UNL1       -0.1840
     14  O3         2.6590   -2.1610   -1.5850 O.2     1  UNL1       -0.1840
     15  C8         2.7110   -0.3480    0.3190 C.ar    1  UNL1        0.1486
     16  C9         3.1840    0.0850    1.5400 C.ar    1  UNL1        0.1875
     17  F1         3.4750   -0.8160    2.4910 F       1  UNL1       -0.2003
     18  C10        3.3640    1.4260    1.8220 C.ar    1  UNL1        0.1982
     19  F2         3.8310    1.8720    3.0200 F       1  UNL1       -0.1993
     20  C11        3.0710    2.3870    0.8710 C.ar    1  UNL1        0.1992
     21  F3         3.2520    3.7180    1.1570 F       1  UNL1       -0.1993
     22  C12        2.6040    1.9860   -0.3390 C.ar    1  UNL1        0.1982
     23  F4         2.3190    2.9180   -1.2660 F       1  UNL1       -0.1993
     24  C13        2.4270    0.6480   -0.6120 C.ar    1  UNL1        0.1875
     25  F5         1.9550    0.2550   -1.8260 F       1  UNL1       -0.2003
     26  C14       -0.9030   -1.0460    0.3890 C.ar    1  UNL1       -0.0546
     27 H          -4.2574    1.0947    1.8372 H       1  UNL1        0.0433
     28 H          -3.5137   -0.4518    2.1660 H       1  UNL1        0.0433
     29 H          -4.5972   -0.2748    0.8066 H       1  UNL1        0.0433
     30 H          -0.7007    1.3741   -0.9405 H       1  UNL1        0.1465
     31 H          -0.8306    3.0440   -0.6207 H       1  UNL1        0.1465
     32 H          -3.4620   -0.6591   -1.6949 H       1  UNL1        0.0636
     33 H          -2.3362   -2.4726   -2.7667 H       1  UNL1        0.0618
     34 H          -0.2909   -3.4272   -1.8796 H       1  UNL1        0.0606
     35 H          -0.5001   -0.6607    1.2575 H       1  UNL1        0.0624
@<TRIPOS>UNITY_ATOM_ATTR
11 1
charge -1
@<TRIPOS>BOND
     1     1     2    1
     2     2     3   am
     3     2     6    1
     4     3     4   am
     5     3     5    2
     6     6     7   ar
     7     6    26   ar
     8     7     8   ar
     9     8     9   ar
    10     9    10   ar
    11    10    11    1
    12    10    26   ar
    13    11    12    1
    14    12    13    2
    15    12    14    2
    16    12    15    1
    17    15    16   ar
    18    15    24   ar
    19    16    17    1
    20    16    18   ar
    21    18    19    1
    22    18    20   ar
    23    20    21    1
    24    20    22   ar
    25    22    23    1
    26    22    24   ar
    27    24    25    1
    28     1    27    1
    29     1    28    1
    30     1    29    1
    31     4    30    1
    32     4    31    1
    33     7    32    1
    34     8    33    1
    35     9    34    1
    36    26    35    1
@<TRIPOS>MOLECULE
../data/bude_mols_rdkit_confs_charged/molecule_84.pdb
 35 36 0 0 0
SMALL
GASTEIGER

@<TRIPOS>ATOM
      1  C1        -3.4320   -0.3470   -1.6780 C.3     1  UNL1        0.0098
      2  N1        -2.8730    0.1570   -0.4610 N.am    1  UNL1       -0.2588
      3  C2        -2.9610    1.5380   -0.0750 C.2     1  UNL1        0.3037
      4  N2        -3.5790    2.5070   -0.8910 N.am    1  UNL1       -0.3129
      5  O1        -2.4830    1.9460    1.0180 O.2     1  UNL1       -0.2525
      6  C3        -2.1980   -0.7620    0.3970 C.ar    1  UNL1        0.0363
      7  C4        -2.7960   -1.9350    0.8100 C.ar    1  UNL1       -0.0403
      8  C5        -2.1150   -2.8250    1.6280 C.ar    1  UNL1       -0.0611
      9  C6        -0.8350   -2.4800    1.9970 C.ar    1  UNL1       -0.0760
     10  C7        -0.2310   -1.2950    1.5810 C.ar    1  UNL1       -0.1274
     11  N3         1.0850   -0.9500    1.9770 N.pl3   1  UNL1       -0.5366
     12  S1         2.4540   -1.3810    1.0230 S.O2    1  UNL1       -0.0533
     13  O2         2.0220   -2.3980   -0.0140 O.2     1  UNL1       -0.1840
     14  O3         3.5210   -1.9890    1.8750 O.2     1  UNL1       -0.1840
     15  C8         3.0650    0.0140    0.1710 C.ar    1  UNL1        0.1486
     16  C9         2.6500    0.4080   -1.0790 C.ar    1  UNL1        0.1875
     17  F1         1.7190   -0.3150   -1.7060 F       1  UNL1       -0.2003
     18  C10        3.1840    1.5400   -1.6950 C.ar    1  UNL1        0.1982
     19  F2         2.7740    1.9300   -2.9340 F       1  UNL1       -0.1993
     20  C11        4.1410    2.2830   -1.0570 C.ar    1  UNL1        0.1992
     21  F3         4.6870    3.3910   -1.6140 F       1  UNL1       -0.1993
     22  C12        4.5900    1.9190    0.2050 C.ar    1  UNL1        0.1982
     23  F4         5.5340    2.6290    0.8660 F       1  UNL1       -0.1993
     24  C13        4.0320    0.7870    0.7810 C.ar    1  UNL1        0.1875
     25  F5         4.4620    0.4230    2.0190 F       1  UNL1       -0.2003
     26  C14       -0.9080   -0.4090    0.7670 C.ar    1  UNL1       -0.0546
     27 H          -3.9023    0.4520   -2.2122 H       1  UNL1        0.0433
     28 H          -4.1573   -1.1006   -1.4521 H       1  UNL1        0.0433
     29 H          -2.6544   -0.7693   -2.2796 H       1  UNL1        0.0433
     30 H          -3.9698    2.2454   -1.7559 H       1  UNL1        0.1465
     31 H          -3.6198    3.4454   -0.5960 H       1  UNL1        0.1465
     32 H          -3.7585   -2.1522    0.5077 H       1  UNL1        0.0636
     33 H          -2.5488   -3.7060    1.9454 H       1  UNL1        0.0618
     34 H          -0.3027   -3.1226    2.6042 H       1  UNL1        0.0606
     35 H          -0.4759    0.4727    0.4492 H       1  UNL1        0.0624
@<TRIPOS>UNITY_ATOM_ATTR
11 1
charge -1
@<TRIPOS>BOND
     1     1     2    1
     2     2     3   am
     3     2     6    1
     4     3     4   am
     5     3     5    2
     6     6     7   ar
     7     6    26   ar
     8     7     8   ar
     9     8     9   ar
    10     9    10   ar
    11    10    11    1
    12    10    26   ar
    13    11    12    1
    14    12    13    2
    15    12    14    2
    16    12    15    1
    17    15    16   ar
    18    15    24   ar
    19    16    17    1
    20    16    18   ar
    21    18    19    1
    22    18    20   ar
    23    20    21    1
    24    20    22   ar
    25    22    23    1
    26    22    24   ar
    27    24    25    1
    28     1    27    1
    29     1    28    1
    30     1    29    1
    31     4    30    1
    32     4    31    1
    33     7    32    1
    34     8    33    1
    35     9    34    1
    36    26    35    1
@<TRIPOS>MOLECULE
../data/bude_mols_rdkit_confs_charged/molecule_84.pdb
 35 36 0 0 0
SMALL
GASTEIGER

@<TRIPOS>ATOM
      1  C1         4.6820   -0.8730    0.3810 C.3     1  UNL1        0.0098
      2  N1         3.6080    0.0330    0.0480 N.am    1  UNL1       -0.2588
      3  C2         3.8790    1.0910   -0.8510 C.2     1  UNL1        0.3037
      4  N2         2.8900    2.0360   -1.2450 N.am    1  UNL1       -0.3129
      5  O1         5.0340    1.2080   -1.3240 O.2     1  UNL1       -0.2525
      6  C3         2.3130   -0.1380    0.6120 C.ar    1  UNL1        0.0363
      7  C4         1.8930    0.6370    1.6800 C.ar    1  UNL1       -0.0403
      8  C5         0.6270    0.4410    2.2000 C.ar    1  UNL1       -0.0611
      9  C6        -0.1840   -0.5210    1.6420 C.ar    1  UNL1       -0.0760
     10  C7         0.2130   -1.3040    0.5770 C.ar    1  UNL1       -0.1274
     11  N3        -0.6830   -2.2850    0.0460 N.pl3   1  UNL1       -0.5366
     12  S1        -1.7760   -1.9210   -1.2070 S.O2    1  UNL1       -0.0533
     13  O2        -2.4810   -3.1910   -1.6350 O.2     1  UNL1       -0.1840
     14  O3        -1.0160   -1.4300   -2.4160 O.2     1  UNL1       -0.1840
     15  C8        -2.9310   -0.6820   -0.7710 C.ar    1  UNL1        0.1486
     16  C9        -4.1460   -0.9850   -0.1890 C.ar    1  UNL1        0.1875
     17  F1        -4.4000   -2.3000    0.0290 F       1  UNL1       -0.2003
     18  C10       -5.0250    0.0040    0.1390 C.ar    1  UNL1        0.1982
     19  F2        -6.2140   -0.3290    0.7120 F       1  UNL1       -0.1993
     20  C11       -4.7240    1.3220   -0.1010 C.ar    1  UNL1        0.1992
     21  F3        -5.6130    2.2870    0.2330 F       1  UNL1       -0.1993
     22  C12       -3.5250    1.6580   -0.6790 C.ar    1  UNL1        0.1982
     23  F4        -3.2680    2.9690   -0.8990 F       1  UNL1       -0.1993
     24  C13       -2.6460    0.6490   -1.0050 C.ar    1  UNL1        0.1875
     25  F5        -1.4720    1.0390   -1.5760 F       1  UNL1       -0.2003
     26  C14        1.4700   -1.1040    0.0660 C.ar    1  UNL1       -0.0546
     27 H           5.5698   -0.5804   -0.1397 H       1  UNL1        0.0433
     28 H           4.4115   -1.8676    0.0939 H       1  UNL1        0.0433
     29 H           4.8605   -0.8423    1.4356 H       1  UNL1        0.0433
     30 H           1.9746    1.9680   -0.8890 H       1  UNL1        0.1465
     31 H           3.1214    2.7576   -1.8735 H       1  UNL1        0.1465
     32 H           2.5178    1.3526    2.0831 H       1  UNL1        0.0636
     33 H           0.2947    1.0082    2.9956 H       1  UNL1        0.0618
     34 H          -1.1273   -0.6626    2.0360 H       1  UNL1        0.0606
     35 H           1.7946   -1.6744   -0.7305 H       1  UNL1        0.0624
@<TRIPOS>UNITY_ATOM_ATTR
11 1
charge -1
@<TRIPOS>BOND
     1     1     2    1
     2     2     3   am
     3     2     6    1
     4     3     4   am
     5     3     5    2
     6     6     7   ar
     7     6    26   ar
     8     7     8   ar
     9     8     9   ar
    10     9    10   ar
    11    10    11    1
    12    10    26   ar
    13    11    12    1
    14    12    13    2
    15    12    14    2
    16    12    15    1
    17    15    16   ar
    18    15    24   ar
    19    16    17    1
    20    16    18   ar
    21    18    19    1
    22    18    20   ar
    23    20    21    1
    24    20    22   ar
    25    22    23    1
    26    22    24   ar
    27    24    25    1
    28     1    27    1
    29     1    28    1
    30     1    29    1
    31     4    30    1
    32     4    31    1
    33     7    32    1
    34     8    33    1
    35     9    34    1
    36    26    35    1
@<TRIPOS>MOLECULE
../data/bude_mols_rdkit_confs_charged/molecule_84.pdb
 35 36 0 0 0
SMALL
GASTEIGER

@<TRIPOS>ATOM
      1  C1        -4.1480   -2.0050    0.5900 C.3     1  UNL1        0.0098
      2  N1        -3.8850   -0.5840    0.5060 N.am    1  UNL1       -0.2588
      3  C2        -4.8320    0.3200    1.0480 C.2     1  UNL1        0.3037
      4  N2        -4.5990    1.7340    0.9760 N.am    1  UNL1       -0.3129
      5  O1        -5.8900   -0.1220    1.5990 O.2     1  UNL1       -0.2525
      6  C3        -2.6910   -0.1300   -0.1150 C.ar    1  UNL1        0.0363
      7  C4        -2.6760    0.9680   -0.9490 C.ar    1  UNL1       -0.0403
      8  C5        -1.4880    1.3780   -1.5360 C.ar    1  UNL1       -0.0611
      9  C6        -0.3080    0.7050   -1.3020 C.ar    1  UNL1       -0.0760
     10  C7        -0.2890   -0.3960   -0.4740 C.ar    1  UNL1       -0.1274
     11  N3         0.8680   -1.1400   -0.1820 N.pl3   1  UNL1       -0.5366
     12  S1         1.9480   -0.8540    1.1100 S.O2    1  UNL1       -0.0533
     13  O2         1.4140    0.1510    2.0890 O.2     1  UNL1       -0.1840
     14  O3         2.2360   -2.1470    1.8200 O.2     1  UNL1       -0.1840
     15  C8         3.4630   -0.2930    0.4290 C.ar    1  UNL1        0.1486
     16  C9         3.6800    1.0580    0.2250 C.ar    1  UNL1        0.1875
     17  F1         2.7190    1.9400    0.5530 F       1  UNL1       -0.2003
     18  C10        4.8940    1.4930   -0.3180 C.ar    1  UNL1        0.1982
     19  F2         5.0930    2.8170   -0.5140 F       1  UNL1       -0.1993
     20  C11        5.8470    0.5560   -0.6380 C.ar    1  UNL1        0.1992
     21  F3         7.0370    0.9650   -1.1700 F       1  UNL1       -0.1993
     22  C12        5.6610   -0.7830   -0.4470 C.ar    1  UNL1        0.1982
     23  F4         6.5800   -1.7240   -0.7520 F       1  UNL1       -0.1993
     24  C13        4.4570   -1.1950    0.0900 C.ar    1  UNL1        0.1875
     25  F5         4.1740   -2.5170    0.3230 F       1  UNL1       -0.2003
     26  C14       -1.4790   -0.7860    0.0980 C.ar    1  UNL1       -0.0546
     27 H          -5.0833   -2.1660    1.0842 H       1  UNL1        0.0433
     28 H          -3.3655   -2.4804    1.1437 H       1  UNL1        0.0433
     29 H          -4.1896   -2.4189   -0.3958 H       1  UNL1        0.0433
     30 H          -3.7805    2.0769    0.5498 H       1  UNL1        0.1465
     31 H          -5.2576    2.3612    1.3528 H       1  UNL1        0.1465
     32 H          -3.5492    1.4851   -1.1366 H       1  UNL1        0.0636
     33 H          -1.4876    2.2010   -2.1586 H       1  UNL1        0.0618
     34 H           0.5647    1.0271   -1.7488 H       1  UNL1        0.0606
     35 H          -1.4738   -1.6100    0.7193 H       1  UNL1        0.0624
@<TRIPOS>UNITY_ATOM_ATTR
11 1
charge -1
@<TRIPOS>BOND
     1     1     2    1
     2     2     3   am
     3     2     6    1
     4     3     4   am
     5     3     5    2
     6     6     7   ar
     7     6    26   ar
     8     7     8   ar
     9     8     9   ar
    10     9    10   ar
    11    10    11    1
    12    10    26   ar
    13    11    12    1
    14    12    13    2
    15    12    14    2
    16    12    15    1
    17    15    16   ar
    18    15    24   ar
    19    16    17    1
    20    16    18   ar
    21    18    19    1
    22    18    20   ar
    23    20    21    1
    24    20    22   ar
    25    22    23    1
    26    22    24   ar
    27    24    25    1
    28     1    27    1
    29     1    28    1
    30     1    29    1
    31     4    30    1
    32     4    31    1
    33     7    32    1
    34     8    33    1
    35     9    34    1
    36    26    35    1
