@<TRIPOS>MOLECULE
../data/bude_mols_rdkit_confs_charged/molecule_73.pdb
 37 40 0 0 0
SMALL
GASTEIGER

@<TRIPOS>ATOM
      1  N1        -3.8310    1.4640    0.9530 N.pl3   1  UNL1       -0.3577
      2  C1        -3.5020    0.4800   -0.0250 C.ar    1  UNL1        0.0278
      3  C2        -4.4280   -0.4540   -0.3850 C.ar    1  UNL1       -0.0408
      4  C3        -4.0760   -1.4030   -1.3390 C.ar    1  UNL1       -0.0600
      5  C4        -2.8200   -1.3760   -1.8870 C.ar    1  UNL1       -0.0614
      6  C5        -1.8560   -0.4330   -1.5360 C.ar    1  UNL1       -0.0568
      7  C6        -2.2270    0.4950   -0.5920 C.ar    1  UNL1       -0.0264
      8  C7        -1.2920    1.5810   -0.1120 C.3     1  UNL1       -0.0205
      9  C8        -0.7970    1.2280    1.2780 C.3     1  UNL1       -0.0040
     10  C9        -0.0740   -0.0770    1.1950 C.ar    1  UNL1        0.0708
     11  N2        -0.5710   -1.2880    1.5400 N.ar    1  UNL1       -0.1777
     12  N3         0.3070   -2.2460    1.3400 N.ar    1  UNL1       -0.2767
     13  C10        1.4080   -1.6520    0.8520 C.ar    1  UNL1        0.0660
     14  C11        2.6230   -2.1630    0.4760 C.ar    1  UNL1       -0.0363
     15  C12        3.6310   -1.3530    0.0020 C.ar    1  UNL1       -0.0580
     16  C13        3.4160    0.0150   -0.0980 C.ar    1  UNL1       -0.0310
     17  C14        4.5120    0.8680   -0.5910 C.ar    1  UNL1        0.0432
     18  N4         5.7420    0.5080   -0.9800 N.ar    1  UNL1       -0.2895
     19  N5         6.4010    1.5890   -1.3350 N.ar    1  UNL1       -0.2180
     20  N6         5.5910    2.6440   -1.1740 N.ar    1  UNL1       -0.2180
     21  N7         4.4400    2.2000   -0.7200 N.ar    1  UNL1       -0.2895
     22  C15        2.2100    0.5650    0.2690 C.ar    1  UNL1       -0.0491
     23  C16        1.2090   -0.2890    0.7460 C.ar    1  UNL1        0.0227
     24 H          -4.7255    1.4695    1.3642 H       1  UNL1        0.1423
     25 H          -3.1637    2.1380    1.2170 H       1  UNL1        0.1423
     26 H          -5.3682   -0.4567    0.0405 H       1  UNL1        0.0636
     27 H          -4.7556   -2.1222   -1.6321 H       1  UNL1        0.0618
     28 H          -2.5766   -2.0880   -2.5933 H       1  UNL1        0.0618
     29 H          -0.9156   -0.4313   -1.9611 H       1  UNL1        0.0621
     30 H          -1.8131    2.5150   -0.0808 H       1  UNL1        0.0317
     31 H          -0.4612    1.6645   -0.7812 H       1  UNL1        0.0317
     32 H          -1.6271    1.1409    1.9475 H       1  UNL1        0.0332
     33 H          -0.1431    1.9918    1.6440 H       1  UNL1        0.0332
     34 H           0.1822   -3.2070    1.5134 H       1  UNL1        0.1889
     35 H           2.7864   -3.1793    0.5499 H       1  UNL1        0.0639
     36 H           4.5379   -1.7592   -0.2763 H       1  UNL1        0.0618
     37 H           2.0473    1.5814    0.1946 H       1  UNL1        0.0625
@<TRIPOS>UNITY_ATOM_ATTR
21 1
charge -1
@<TRIPOS>BOND
     1     1     2    1
     2     2     3   ar
     3     2     7   ar
     4     3     4   ar
     5     4     5   ar
     6     5     6   ar
     7     6     7   ar
     8     7     8    1
     9     8     9    1
    10     9    10    1
    11    10    11   ar
    12    10    23   ar
    13    11    12   ar
    14    12    13   ar
    15    13    14   ar
    16    13    23   ar
    17    14    15   ar
    18    15    16   ar
    19    16    17    1
    20    16    22   ar
    21    17    18   ar
    22    17    21   ar
    23    18    19   ar
    24    19    20   ar
    25    20    21   ar
    26    22    23   ar
    27     1    24    1
    28     1    25    1
    29     3    26    1
    30     4    27    1
    31     5    28    1
    32     6    29    1
    33     8    30    1
    34     8    31    1
    35     9    32    1
    36     9    33    1
    37    12    34    1
    38    14    35    1
    39    15    36    1
    40    22    37    1
@<TRIPOS>MOLECULE
../data/bude_mols_rdkit_confs_charged/molecule_73.pdb
 37 40 0 0 0
SMALL
GASTEIGER

@<TRIPOS>ATOM
      1  N1        -3.7960    1.2520   -0.8180 N.pl3   1  UNL1       -0.3577
      2  C1        -3.6650   -0.1590   -0.8570 C.ar    1  UNL1        0.0278
      3  C2        -4.7240   -1.0390   -0.8310 C.ar    1  UNL1       -0.0408
      4  C3        -4.5290   -2.4120   -0.8770 C.ar    1  UNL1       -0.0600
      5  C4        -3.2620   -2.9450   -0.9500 C.ar    1  UNL1       -0.0614
      6  C5        -2.1990   -2.0670   -0.9750 C.ar    1  UNL1       -0.0568
      7  C6        -2.3970   -0.6990   -0.9290 C.ar    1  UNL1       -0.0264
      8  C7        -1.1900    0.1730   -0.9470 C.3     1  UNL1       -0.0205
      9  C8        -0.9770    0.6240    0.4670 C.3     1  UNL1       -0.0040
     10  C9         0.1790    1.4970    0.6790 C.ar    1  UNL1        0.0708
     11  N2         0.1950    2.8410    0.8800 N.ar    1  UNL1       -0.1777
     12  N3         1.4240    3.2600    1.0350 N.ar    1  UNL1       -0.2767
     13  C10        2.3020    2.2460    0.9500 C.ar    1  UNL1        0.0660
     14  C11        3.6580    2.0960    1.0290 C.ar    1  UNL1       -0.0363
     15  C12        4.1980    0.8380    0.8820 C.ar    1  UNL1       -0.0580
     16  C13        3.4260   -0.2810    0.6580 C.ar    1  UNL1       -0.0310
     17  C14        4.0470   -1.6110    0.5050 C.ar    1  UNL1        0.0432
     18  N4         5.3540   -1.9040    0.5680 N.ar    1  UNL1       -0.2895
     19  N5         5.5590   -3.1870    0.3860 N.ar    1  UNL1       -0.2180
     20  N6         4.3750   -3.7270    0.2030 N.ar    1  UNL1       -0.2180
     21  N7         3.4290   -2.7840    0.2720 N.ar    1  UNL1       -0.2895
     22  C15        2.0610   -0.1220    0.5790 C.ar    1  UNL1       -0.0491
     23  C16        1.5110    1.1150    0.7220 C.ar    1  UNL1        0.0227
     24 H          -4.6895    1.6622   -0.7666 H       1  UNL1        0.1423
     25 H          -2.9935    1.8217   -0.8423 H       1  UNL1        0.1423
     26 H          -5.6856   -0.6684   -0.7760 H       1  UNL1        0.0636
     27 H          -5.3456   -3.0426   -0.8562 H       1  UNL1        0.0618
     28 H          -3.1129   -3.9656   -0.9848 H       1  UNL1        0.0618
     29 H          -1.2374   -2.4377   -1.0291 H       1  UNL1        0.0621
     30 H          -1.3517    1.0168   -1.5848 H       1  UNL1        0.0317
     31 H          -0.3360   -0.3519   -1.3211 H       1  UNL1        0.0317
     32 H          -0.8495   -0.2466    1.0758 H       1  UNL1        0.0332
     33 H          -1.8375    1.2056    0.7243 H       1  UNL1        0.0332
     34 H           1.6743    4.1988    1.1938 H       1  UNL1        0.1889
     35 H           4.2672    2.9121    1.1961 H       1  UNL1        0.0639
     36 H           5.2225    0.7288    0.9420 H       1  UNL1        0.0618
     37 H           1.4548   -0.9402    0.4114 H       1  UNL1        0.0625
@<TRIPOS>UNITY_ATOM_ATTR
21 1
charge -1
@<TRIPOS>BOND
     1     1     2    1
     2     2     3   ar
     3     2     7   ar
     4     3     4   ar
     5     4     5   ar
     6     5     6   ar
     7     6     7   ar
     8     7     8    1
     9     8     9    1
    10     9    10    1
    11    10    11   ar
    12    10    23   ar
    13    11    12   ar
    14    12    13   ar
    15    13    14   ar
    16    13    23   ar
    17    14    15   ar
    18    15    16   ar
    19    16    17    1
    20    16    22   ar
    21    17    18   ar
    22    17    21   ar
    23    18    19   ar
    24    19    20   ar
    25    20    21   ar
    26    22    23   ar
    27     1    24    1
    28     1    25    1
    29     3    26    1
    30     4    27    1
    31     5    28    1
    32     6    29    1
    33     8    30    1
    34     8    31    1
    35     9    32    1
    36     9    33    1
    37    12    34    1
    38    14    35    1
    39    15    36    1
    40    22    37    1
@<TRIPOS>MOLECULE
../data/bude_mols_rdkit_confs_charged/molecule_73.pdb
 37 40 0 0 0
SMALL
GASTEIGER

@<TRIPOS>ATOM
      1  N1        -3.9650   -1.5240    0.1980 N.pl3   1  UNL1       -0.3577
      2  C1        -3.7670   -0.2090   -0.3160 C.ar    1  UNL1        0.0278
      3  C2        -4.8460    0.6120   -0.6150 C.ar    1  UNL1       -0.0408
      4  C3        -4.7040    1.8810   -1.1260 C.ar    1  UNL1       -0.0600
      5  C4        -3.4520    2.4020   -1.3680 C.ar    1  UNL1       -0.0614
      6  C5        -2.3750    1.5970   -1.0750 C.ar    1  UNL1       -0.0568
      7  C6        -2.5110    0.3050   -0.5540 C.ar    1  UNL1       -0.0264
      8  C7        -1.2910   -0.4680   -0.2510 C.3     1  UNL1       -0.0205
      9  C8        -0.8940   -0.4470    1.2050 C.3     1  UNL1       -0.0040
     10  C9         0.3400   -1.2850    1.3130 C.ar    1  UNL1        0.0708
     11  N2         0.4130   -2.5140    1.8120 N.ar    1  UNL1       -0.1777
     12  N3         1.6590   -2.9560    1.7580 N.ar    1  UNL1       -0.2767
     13  C10        2.4370   -2.0060    1.2130 C.ar    1  UNL1        0.0660
     14  C11        3.7760   -1.9370    0.9260 C.ar    1  UNL1       -0.0363
     15  C12        4.2790   -0.8000    0.3530 C.ar    1  UNL1       -0.0580
     16  C13        3.4890    0.2880    0.0490 C.ar    1  UNL1       -0.0310
     17  C14        4.0650    1.4760   -0.5620 C.ar    1  UNL1        0.0432
     18  N4         5.3600    1.6390   -0.8800 N.ar    1  UNL1       -0.2895
     19  N5         5.5930    2.8030   -1.4160 N.ar    1  UNL1       -0.2180
     20  N6         4.4180    3.4200   -1.4490 N.ar    1  UNL1       -0.2180
     21  N7         3.4820    2.6310   -0.9370 N.ar    1  UNL1       -0.2895
     22  C15        2.1360    0.2150    0.3410 C.ar    1  UNL1       -0.0491
     23  C16        1.6170   -0.9330    0.9220 C.ar    1  UNL1        0.0227
     24 H          -4.8773   -1.8586    0.3559 H       1  UNL1        0.1423
     25 H          -3.1894   -2.0975    0.3950 H       1  UNL1        0.1423
     26 H          -5.7988    0.2534   -0.4460 H       1  UNL1        0.0636
     27 H          -5.5422    2.4475   -1.3298 H       1  UNL1        0.0618
     28 H          -3.3274    3.3521   -1.7513 H       1  UNL1        0.0618
     29 H          -1.4252    1.9620   -1.2470 H       1  UNL1        0.0621
     30 H          -0.4846   -0.0618   -0.8251 H       1  UNL1        0.0317
     31 H          -1.5021   -1.4873   -0.4986 H       1  UNL1        0.0317
     32 H          -1.6758   -0.8585    1.8086 H       1  UNL1        0.0332
     33 H          -0.7184    0.5516    1.5470 H       1  UNL1        0.0332
     34 H           1.9664   -3.8387    2.0673 H       1  UNL1        0.1889
     35 H           4.3973   -2.7329    1.1394 H       1  UNL1        0.0639
     36 H           5.2879   -0.7557    0.1406 H       1  UNL1        0.0618
     37 H           1.5166    1.0122    0.1269 H       1  UNL1        0.0625
@<TRIPOS>UNITY_ATOM_ATTR
21 1
charge -1
@<TRIPOS>BOND
     1     1     2    1
     2     2     3   ar
     3     2     7   ar
     4     3     4   ar
     5     4     5   ar
     6     5     6   ar
     7     6     7   ar
     8     7     8    1
     9     8     9    1
    10     9    10    1
    11    10    11   ar
    12    10    23   ar
    13    11    12   ar
    14    12    13   ar
    15    13    14   ar
    16    13    23   ar
    17    14    15   ar
    18    15    16   ar
    19    16    17    1
    20    16    22   ar
    21    17    18   ar
    22    17    21   ar
    23    18    19   ar
    24    19    20   ar
    25    20    21   ar
    26    22    23   ar
    27     1    24    1
    28     1    25    1
    29     3    26    1
    30     4    27    1
    31     5    28    1
    32     6    29    1
    33     8    30    1
    34     8    31    1
    35     9    32    1
    36     9    33    1
    37    12    34    1
    38    14    35    1
    39    15    36    1
    40    22    37    1
@<TRIPOS>MOLECULE
../data/bude_mols_rdkit_confs_charged/molecule_73.pdb
 37 40 0 0 0
SMALL
GASTEIGER

@<TRIPOS>ATOM
      1  N1        -2.2240    2.4290   -0.5140 N.pl3   1  UNL1       -0.3577
      2  C1        -3.1490    1.3540   -0.3940 C.ar    1  UNL1        0.0278
      3  C2        -4.5100    1.5470   -0.4910 C.ar    1  UNL1       -0.0408
      4  C3        -5.3830    0.5010   -0.3720 C.ar    1  UNL1       -0.0600
      5  C4        -4.8910   -0.7630   -0.1530 C.ar    1  UNL1       -0.0614
      6  C5        -3.5170   -0.9540   -0.0560 C.ar    1  UNL1       -0.0568
      7  C6        -2.6250    0.0780   -0.1720 C.ar    1  UNL1       -0.0264
      8  C7        -1.1310   -0.0700   -0.0730 C.3     1  UNL1       -0.0205
      9  C8        -0.7940   -1.4630    0.1100 C.3     1  UNL1       -0.0040
     10  C9         0.5740   -1.9080    0.2470 C.ar    1  UNL1        0.0708
     11  N2         0.8310   -3.2440    0.4440 N.ar    1  UNL1       -0.1777
     12  N3         2.1270   -3.4100    0.5410 N.ar    1  UNL1       -0.2767
     13  C10        2.7430   -2.2200    0.4140 C.ar    1  UNL1        0.0660
     14  C11        4.0550   -1.8040    0.4330 C.ar    1  UNL1       -0.0363
     15  C12        4.3860   -0.4830    0.2720 C.ar    1  UNL1       -0.0580
     16  C13        3.4120    0.4830    0.0830 C.ar    1  UNL1       -0.0310
     17  C14        3.7580    1.8840   -0.0880 C.ar    1  UNL1        0.0432
     18  N4         4.9870    2.4110   -0.0830 N.ar    1  UNL1       -0.2895
     19  N5         4.8940    3.7310   -0.2730 N.ar    1  UNL1       -0.2180
     20  N6         3.6250    4.0340   -0.3950 N.ar    1  UNL1       -0.2180
     21  N7         2.9200    2.9080   -0.2830 N.ar    1  UNL1       -0.2895
     22  C15        2.0790    0.0820    0.0610 C.ar    1  UNL1       -0.0491
     23  C16        1.7580   -1.2440    0.2240 C.ar    1  UNL1        0.0227
     24 H          -2.5507    3.3444   -0.6708 H       1  UNL1        0.1423
     25 H          -1.2574    2.2572   -0.4402 H       1  UNL1        0.1423
     26 H          -4.8768    2.4973   -0.6563 H       1  UNL1        0.0636
     27 H          -6.4001    0.6594   -0.4459 H       1  UNL1        0.0618
     28 H          -5.5355   -1.5637   -0.0613 H       1  UNL1        0.0618
     29 H          -3.1572   -1.9070    0.1092 H       1  UNL1        0.0621
     30 H          -0.7714    0.4961    0.7607 H       1  UNL1        0.0317
     31 H          -0.6774    0.2906   -0.9725 H       1  UNL1        0.0317
     32 H          -1.1945   -1.9817   -0.7359 H       1  UNL1        0.0332
     33 H          -1.1946   -1.6655    1.0813 H       1  UNL1        0.0332
     34 H           2.5803   -4.2721    0.6846 H       1  UNL1        0.1889
     35 H           4.8044   -2.5000    0.5711 H       1  UNL1        0.0639
     36 H           5.3793   -0.2036    0.2921 H       1  UNL1        0.0618
     37 H           1.3321    0.7805   -0.0777 H       1  UNL1        0.0625
@<TRIPOS>UNITY_ATOM_ATTR
21 1
charge -1
@<TRIPOS>BOND
     1     1     2    1
     2     2     3   ar
     3     2     7   ar
     4     3     4   ar
     5     4     5   ar
     6     5     6   ar
     7     6     7   ar
     8     7     8    1
     9     8     9    1
    10     9    10    1
    11    10    11   ar
    12    10    23   ar
    13    11    12   ar
    14    12    13   ar
    15    13    14   ar
    16    13    23   ar
    17    14    15   ar
    18    15    16   ar
    19    16    17    1
    20    16    22   ar
    21    17    18   ar
    22    17    21   ar
    23    18    19   ar
    24    19    20   ar
    25    20    21   ar
    26    22    23   ar
    27     1    24    1
    28     1    25    1
    29     3    26    1
    30     4    27    1
    31     5    28    1
    32     6    29    1
    33     8    30    1
    34     8    31    1
    35     9    32    1
    36     9    33    1
    37    12    34    1
    38    14    35    1
    39    15    36    1
    40    22    37    1
@<TRIPOS>MOLECULE
../data/bude_mols_rdkit_confs_charged/molecule_73.pdb
 37 40 0 0 0
SMALL
GASTEIGER

@<TRIPOS>ATOM
      1  N1        -4.4240   -1.2730   -1.4880 N.pl3   1  UNL1       -0.3577
      2  C1        -4.0900   -0.0650   -0.8390 C.ar    1  UNL1        0.0278
      3  C2        -5.0610    0.9090   -0.7650 C.ar    1  UNL1       -0.0408
      4  C3        -4.8510    2.1230   -0.1510 C.ar    1  UNL1       -0.0600
      5  C4        -3.6220    2.3760    0.4150 C.ar    1  UNL1       -0.0614
      6  C5        -2.6410    1.4050    0.3460 C.ar    1  UNL1       -0.0568
      7  C6        -2.8650    0.1930   -0.2720 C.ar    1  UNL1       -0.0264
      8  C7        -1.8070   -0.8630   -0.3350 C.3     1  UNL1       -0.0205
      9  C8        -0.6520   -0.4130    0.5020 C.3     1  UNL1       -0.0040
     10  C9         0.4870   -1.3570    0.5480 C.ar    1  UNL1        0.0708
     11  N2         0.5010   -2.6870    0.7440 N.ar    1  UNL1       -0.1777
     12  N3         1.7260   -3.1800    0.6780 N.ar    1  UNL1       -0.2767
     13  C10        2.6090   -2.1940    0.4340 C.ar    1  UNL1        0.0660
     14  C11        3.9820   -2.1300    0.3300 C.ar    1  UNL1       -0.0363
     15  C12        4.5800   -0.9090    0.1440 C.ar    1  UNL1       -0.0580
     16  C13        3.8210    0.2630    0.0580 C.ar    1  UNL1       -0.0310
     17  C14        4.4550    1.5790   -0.0840 C.ar    1  UNL1        0.0432
     18  N4         3.8830    2.7710   -0.2120 N.ar    1  UNL1       -0.2895
     19  N5         4.8300    3.6860   -0.2740 N.ar    1  UNL1       -0.2180
     20  N6         6.0090    3.1020   -0.1900 N.ar    1  UNL1       -0.2180
     21  N7         5.7980    1.8150   -0.0740 N.ar    1  UNL1       -0.2895
     22  C15        2.4490    0.1850    0.1580 C.ar    1  UNL1       -0.0491
     23  C16        1.8370   -1.0410    0.3480 C.ar    1  UNL1        0.0227
     24 H          -5.3219   -1.3928   -1.8735 H       1  UNL1        0.1423
     25 H          -3.7590   -1.9959   -1.5552 H       1  UNL1        0.1423
     26 H          -5.9837    0.7210   -1.1871 H       1  UNL1        0.0636
     27 H          -5.6014    2.8306   -0.1157 H       1  UNL1        0.0618
     28 H          -3.4361    3.2766    0.8835 H       1  UNL1        0.0618
     29 H          -1.7177    1.5917    0.7676 H       1  UNL1        0.0621
     30 H          -1.4899   -0.9989   -1.3479 H       1  UNL1        0.0317
     31 H          -2.1893   -1.7934    0.0298 H       1  UNL1        0.0317
     32 H          -1.0030   -0.2661    1.5020 H       1  UNL1        0.0332
     33 H          -0.2824    0.4827    0.0481 H       1  UNL1        0.0332
     34 H           1.9584   -4.1300    0.7909 H       1  UNL1        0.1889
     35 H           4.5521   -2.9881    0.3911 H       1  UNL1        0.0639
     36 H           5.6076   -0.8544    0.0662 H       1  UNL1        0.0618
     37 H           1.8776    1.0417    0.0911 H       1  UNL1        0.0625
@<TRIPOS>UNITY_ATOM_ATTR
21 1
charge -1
@<TRIPOS>BOND
     1     1     2    1
     2     2     3   ar
     3     2     7   ar
     4     3     4   ar
     5     4     5   ar
     6     5     6   ar
     7     6     7   ar
     8     7     8    1
     9     8     9    1
    10     9    10    1
    11    10    11   ar
    12    10    23   ar
    13    11    12   ar
    14    12    13   ar
    15    13    14   ar
    16    13    23   ar
    17    14    15   ar
    18    15    16   ar
    19    16    17    1
    20    16    22   ar
    21    17    18   ar
    22    17    21   ar
    23    18    19   ar
    24    19    20   ar
    25    20    21   ar
    26    22    23   ar
    27     1    24    1
    28     1    25    1
    29     3    26    1
    30     4    27    1
    31     5    28    1
    32     6    29    1
    33     8    30    1
    34     8    31    1
    35     9    32    1
    36     9    33    1
    37    12    34    1
    38    14    35    1
    39    15    36    1
    40    22    37    1
@<TRIPOS>MOLECULE
../data/bude_mols_rdkit_confs_charged/molecule_73.pdb
 37 40 0 0 0
SMALL
GASTEIGER

@<TRIPOS>ATOM
      1  N1        -3.4720   -1.3740   -1.0220 N.pl3   1  UNL1       -0.3577
      2  C1        -3.4000   -0.0840   -0.3980 C.ar    1  UNL1        0.0278
      3  C2        -3.9870    1.0140   -1.0150 C.ar    1  UNL1       -0.0408
      4  C3        -4.0070    2.2470   -0.3950 C.ar    1  UNL1       -0.0600
      5  C4        -3.4440    2.4190    0.8550 C.ar    1  UNL1       -0.0614
      6  C5        -2.8670    1.3290    1.4530 C.ar    1  UNL1       -0.0568
      7  C6        -2.8380    0.0730    0.8350 C.ar    1  UNL1       -0.0264
      8  C7        -2.0840   -1.0110    1.5160 C.3     1  UNL1       -0.0205
      9  C8        -0.6460   -0.8490    1.3460 C.3     1  UNL1       -0.0040
     10  C9        -0.0610   -0.7990    0.0010 C.ar    1  UNL1        0.0708
     11  N2        -0.5020   -0.9170   -1.2300 N.ar    1  UNL1       -0.1777
     12  N3         0.4510   -0.7670   -2.1220 N.ar    1  UNL1       -0.2767
     13  C10        1.6160   -0.5330   -1.4920 C.ar    1  UNL1        0.0660
     14  C11        2.8970   -0.3050   -1.9810 C.ar    1  UNL1       -0.0363
     15  C12        3.8810   -0.0910   -1.0360 C.ar    1  UNL1       -0.0580
     16  C13        3.6510   -0.0960    0.3100 C.ar    1  UNL1       -0.0310
     17  C14        4.7070    0.1320    1.3090 C.ar    1  UNL1        0.0432
     18  N4         4.5820    0.1320    2.6420 N.ar    1  UNL1       -0.2895
     19  N5         5.7250    0.3730    3.2370 N.ar    1  UNL1       -0.2180
     20  N6         6.5970    0.5300    2.2390 N.ar    1  UNL1       -0.2180
     21  N7         6.0020    0.3890    1.0750 N.ar    1  UNL1       -0.2895
     22  C15        2.3540   -0.3290    0.7300 C.ar    1  UNL1       -0.0491
     23  C16        1.3260   -0.5480   -0.1610 C.ar    1  UNL1        0.0227
     24 H          -3.8813   -1.4679   -1.9125 H       1  UNL1        0.1423
     25 H          -3.1121   -2.1652   -0.5597 H       1  UNL1        0.1423
     26 H          -4.4134    0.9062   -1.9486 H       1  UNL1        0.0636
     27 H          -4.4476    3.0499   -0.8707 H       1  UNL1        0.0618
     28 H          -3.4575    3.3385    1.3233 H       1  UNL1        0.0618
     29 H          -2.4412    1.4373    2.3868 H       1  UNL1        0.0621
     30 H          -2.3791   -1.9527    1.1025 H       1  UNL1        0.0317
     31 H          -2.3055   -0.9683    2.5620 H       1  UNL1        0.0317
     32 H          -0.1820   -1.6691    1.8530 H       1  UNL1        0.0332
     33 H          -0.4656    0.1348    1.7262 H       1  UNL1        0.0332
     34 H           0.3312   -0.8179   -3.0979 H       1  UNL1        0.1889
     35 H           3.1011   -0.2961   -2.9926 H       1  UNL1        0.0639
     36 H           4.8436    0.0823   -1.3653 H       1  UNL1        0.0618
     37 H           2.1499   -0.3391    1.7416 H       1  UNL1        0.0625
@<TRIPOS>UNITY_ATOM_ATTR
21 1
charge -1
@<TRIPOS>BOND
     1     1     2    1
     2     2     3   ar
     3     2     7   ar
     4     3     4   ar
     5     4     5   ar
     6     5     6   ar
     7     6     7   ar
     8     7     8    1
     9     8     9    1
    10     9    10    1
    11    10    11   ar
    12    10    23   ar
    13    11    12   ar
    14    12    13   ar
    15    13    14   ar
    16    13    23   ar
    17    14    15   ar
    18    15    16   ar
    19    16    17    1
    20    16    22   ar
    21    17    18   ar
    22    17    21   ar
    23    18    19   ar
    24    19    20   ar
    25    20    21   ar
    26    22    23   ar
    27     1    24    1
    28     1    25    1
    29     3    26    1
    30     4    27    1
    31     5    28    1
    32     6    29    1
    33     8    30    1
    34     8    31    1
    35     9    32    1
    36     9    33    1
    37    12    34    1
    38    14    35    1
    39    15    36    1
    40    22    37    1
@<TRIPOS>MOLECULE
../data/bude_mols_rdkit_confs_charged/molecule_73.pdb
 37 40 0 0 0
SMALL
GASTEIGER

@<TRIPOS>ATOM
      1  N1        -2.8670   -0.5050    1.8480 N.pl3   1  UNL1       -0.3577
      2  C1        -3.4670    0.2350    0.7750 C.ar    1  UNL1        0.0278
      3  C2        -4.4360    1.1840    0.9870 C.ar    1  UNL1       -0.0408
      4  C3        -5.0030    1.8890   -0.0720 C.ar    1  UNL1       -0.0600
      5  C4        -4.5780    1.6250   -1.3640 C.ar    1  UNL1       -0.0614
      6  C5        -3.5920    0.6560   -1.5500 C.ar    1  UNL1       -0.0568
      7  C6        -3.0420   -0.0310   -0.5000 C.ar    1  UNL1       -0.0264
      8  C7        -1.9990   -1.0440   -0.7710 C.3     1  UNL1       -0.0205
      9  C8        -0.6760   -0.4230   -0.3870 C.3     1  UNL1       -0.0040
     10  C9         0.4620   -1.3200   -0.6020 C.ar    1  UNL1        0.0708
     11  N2         0.5230   -2.5760   -1.0670 N.ar    1  UNL1       -0.1777
     12  N3         1.7710   -3.0140   -1.0980 N.ar    1  UNL1       -0.2767
     13  C10        2.5980   -2.0300   -0.6410 C.ar    1  UNL1        0.0660
     14  C11        3.9610   -1.9290   -0.4570 C.ar    1  UNL1       -0.0363
     15  C12        4.4850   -0.7530    0.0400 C.ar    1  UNL1       -0.0580
     16  C13        3.7050    0.3310    0.3630 C.ar    1  UNL1       -0.0310
     17  C14        4.3010    1.5580    0.8850 C.ar    1  UNL1        0.0432
     18  N4         5.5850    1.8190    1.1190 N.ar    1  UNL1       -0.2895
     19  N5         5.7000    3.0280    1.5850 N.ar    1  UNL1       -0.2180
     20  N6         4.5040    3.5750    1.6630 N.ar    1  UNL1       -0.2180
     21  N7         3.6370    2.6730    1.2330 N.ar    1  UNL1       -0.2895
     22  C15        2.3460    0.2070    0.1710 C.ar    1  UNL1       -0.0491
     23  C16        1.7690   -0.9560   -0.3260 C.ar    1  UNL1        0.0227
     24 H          -3.1479   -0.3401    2.7771 H       1  UNL1        0.1423
     25 H          -2.1744   -1.1776    1.6551 H       1  UNL1        0.1423
     26 H          -4.7507    1.3790    1.9503 H       1  UNL1        0.0636
     27 H          -5.7308    2.5993    0.1036 H       1  UNL1        0.0618
     28 H          -4.9804    2.1320   -2.1678 H       1  UNL1        0.0618
     29 H          -3.2669    0.4503   -2.5076 H       1  UNL1        0.0621
     30 H          -1.9971   -1.3019   -1.8095 H       1  UNL1        0.0317
     31 H          -2.1791   -1.9389   -0.2128 H       1  UNL1        0.0317
     32 H          -0.7112   -0.1595    0.6494 H       1  UNL1        0.0332
     33 H          -0.5310    0.4330   -1.0124 H       1  UNL1        0.0332
     34 H           2.0567   -3.9058   -1.4017 H       1  UNL1        0.1889
     35 H           4.5804   -2.7216   -0.6877 H       1  UNL1        0.0639
     36 H           5.5059   -0.6849    0.1747 H       1  UNL1        0.0618
     37 H           1.7353    1.0055    0.4043 H       1  UNL1        0.0625
@<TRIPOS>UNITY_ATOM_ATTR
21 1
charge -1
@<TRIPOS>BOND
     1     1     2    1
     2     2     3   ar
     3     2     7   ar
     4     3     4   ar
     5     4     5   ar
     6     5     6   ar
     7     6     7   ar
     8     7     8    1
     9     8     9    1
    10     9    10    1
    11    10    11   ar
    12    10    23   ar
    13    11    12   ar
    14    12    13   ar
    15    13    14   ar
    16    13    23   ar
    17    14    15   ar
    18    15    16   ar
    19    16    17    1
    20    16    22   ar
    21    17    18   ar
    22    17    21   ar
    23    18    19   ar
    24    19    20   ar
    25    20    21   ar
    26    22    23   ar
    27     1    24    1
    28     1    25    1
    29     3    26    1
    30     4    27    1
    31     5    28    1
    32     6    29    1
    33     8    30    1
    34     8    31    1
    35     9    32    1
    36     9    33    1
    37    12    34    1
    38    14    35    1
    39    15    36    1
    40    22    37    1
@<TRIPOS>MOLECULE
../data/bude_mols_rdkit_confs_charged/molecule_73.pdb
 37 40 0 0 0
SMALL
GASTEIGER

@<TRIPOS>ATOM
      1  N1        -1.7280    1.7330   -0.7640 N.pl3   1  UNL1       -0.3577
      2  C1        -2.8970    0.9600   -0.5070 C.ar    1  UNL1        0.0278
      3  C2        -4.1510    1.3850   -0.9630 C.ar    1  UNL1       -0.0408
      4  C3        -5.2890    0.6520   -0.7270 C.ar    1  UNL1       -0.0600
      5  C4        -5.1930   -0.5290   -0.0260 C.ar    1  UNL1       -0.0614
      6  C5        -3.9760   -0.9730    0.4350 C.ar    1  UNL1       -0.0568
      7  C6        -2.8290   -0.2200    0.1890 C.ar    1  UNL1       -0.0264
      8  C7        -1.5030   -0.7070    0.6870 C.3     1  UNL1       -0.0205
      9  C8        -0.7360   -1.2880   -0.4680 C.3     1  UNL1       -0.0040
     10  C9         0.5840   -1.7940   -0.0450 C.ar    1  UNL1        0.0708
     11  N2         0.9030   -3.0970    0.2190 N.ar    1  UNL1       -0.1777
     12  N3         2.1540   -3.2030    0.5910 N.ar    1  UNL1       -0.2767
     13  C10        2.7510   -1.9950    0.6010 C.ar    1  UNL1        0.0660
     14  C11        4.0360   -1.5920    0.9050 C.ar    1  UNL1       -0.0363
     15  C12        4.3030   -0.2500    0.7920 C.ar    1  UNL1       -0.0580
     16  C13        3.3420    0.6710    0.3940 C.ar    1  UNL1       -0.0310
     17  C14        3.6820    2.0950    0.2760 C.ar    1  UNL1        0.0432
     18  N4         4.9010    2.6420    0.5210 N.ar    1  UNL1       -0.2895
     19  N5         4.8200    3.9550    0.3010 N.ar    1  UNL1       -0.2180
     20  N6         3.6080    4.2440   -0.0680 N.ar    1  UNL1       -0.2180
     21  N7         2.9000    3.1150   -0.0890 N.ar    1  UNL1       -0.2895
     22  C15        2.0760    0.2420    0.1000 C.ar    1  UNL1       -0.0491
     23  C16        1.7500   -1.1030    0.1960 C.ar    1  UNL1        0.0227
     24 H          -1.7967    2.5775   -1.2654 H       1  UNL1        0.1423
     25 H          -0.8516    1.4226   -0.4402 H       1  UNL1        0.1423
     26 H          -4.2221    2.2701   -1.4890 H       1  UNL1        0.0636
     27 H          -6.2041    0.9826   -1.0709 H       1  UNL1        0.0618
     28 H          -6.0425   -1.0863    0.1552 H       1  UNL1        0.0618
     29 H          -3.9121   -1.8590    0.9603 H       1  UNL1        0.0621
     30 H          -1.6531   -1.4586    1.4336 H       1  UNL1        0.0317
     31 H          -0.9547    0.1056    1.1158 H       1  UNL1        0.0317
     32 H          -0.5956   -0.5285   -1.2085 H       1  UNL1        0.0332
     33 H          -1.2976   -2.1085   -0.8633 H       1  UNL1        0.0332
     34 H           2.5973   -4.0488    0.8304 H       1  UNL1        0.1889
     35 H           4.7593   -2.2655    1.2022 H       1  UNL1        0.0639
     36 H           5.2534    0.0873    1.0110 H       1  UNL1        0.0618
     37 H           1.3593    0.9235   -0.1950 H       1  UNL1        0.0625
@<TRIPOS>UNITY_ATOM_ATTR
21 1
charge -1
@<TRIPOS>BOND
     1     1     2    1
     2     2     3   ar
     3     2     7   ar
     4     3     4   ar
     5     4     5   ar
     6     5     6   ar
     7     6     7   ar
     8     7     8    1
     9     8     9    1
    10     9    10    1
    11    10    11   ar
    12    10    23   ar
    13    11    12   ar
    14    12    13   ar
    15    13    14   ar
    16    13    23   ar
    17    14    15   ar
    18    15    16   ar
    19    16    17    1
    20    16    22   ar
    21    17    18   ar
    22    17    21   ar
    23    18    19   ar
    24    19    20   ar
    25    20    21   ar
    26    22    23   ar
    27     1    24    1
    28     1    25    1
    29     3    26    1
    30     4    27    1
    31     5    28    1
    32     6    29    1
    33     8    30    1
    34     8    31    1
    35     9    32    1
    36     9    33    1
    37    12    34    1
    38    14    35    1
    39    15    36    1
    40    22    37    1
@<TRIPOS>MOLECULE
../data/bude_mols_rdkit_confs_charged/molecule_73.pdb
 37 40 0 0 0
SMALL
GASTEIGER

@<TRIPOS>ATOM
      1  N1        -0.9470   -0.2200   -1.5620 N.pl3   1  UNL1       -0.3577
      2  C1        -2.2880   -0.2630   -1.0290 C.ar    1  UNL1        0.0278
      3  C2        -3.3520    0.1110   -1.8370 C.ar    1  UNL1       -0.0408
      4  C3        -4.6500    0.0660   -1.3890 C.ar    1  UNL1       -0.0600
      5  C4        -4.9170   -0.3600   -0.1090 C.ar    1  UNL1       -0.0614
      6  C5        -3.8700   -0.7290    0.6900 C.ar    1  UNL1       -0.0568
      7  C6        -2.5460   -0.6840    0.2420 C.ar    1  UNL1       -0.0264
      8  C7        -1.4840   -1.0700    1.1950 C.3     1  UNL1       -0.0205
      9  C8        -0.8250    0.0770    1.9040 C.3     1  UNL1       -0.0040
     10  C9        -0.1090    1.0420    1.0590 C.ar    1  UNL1        0.0708
     11  N2        -0.5030    2.2440    0.6150 N.ar    1  UNL1       -0.1777
     12  N3         0.4330    2.7970   -0.1230 N.ar    1  UNL1       -0.2767
     13  C10        1.4860    1.9660   -0.1880 C.ar    1  UNL1        0.0660
     14  C11        2.7280    2.0620   -0.8310 C.ar    1  UNL1       -0.0363
     15  C12        3.6310    1.0160   -0.7100 C.ar    1  UNL1       -0.0580
     16  C13        3.3290   -0.1180    0.0320 C.ar    1  UNL1       -0.0310
     17  C14        4.2600   -1.2250    0.1740 C.ar    1  UNL1        0.0432
     18  N4         5.5020   -1.3400   -0.3540 N.ar    1  UNL1       -0.2895
     19  N5         5.9710   -2.5060    0.0360 N.ar    1  UNL1       -0.2180
     20  N6         5.0670   -3.1050    0.7780 N.ar    1  UNL1       -0.2180
     21  N7         4.0070   -2.3380    0.8780 N.ar    1  UNL1       -0.2895
     22  C15        2.1040   -0.1560    0.6360 C.ar    1  UNL1       -0.0491
     23  C16        1.1750    0.8450    0.5510 C.ar    1  UNL1        0.0227
     24 H          -0.7934    0.0891   -2.4840 H       1  UNL1        0.1423
     25 H          -0.1861   -0.4997   -1.0034 H       1  UNL1        0.1423
     26 H          -3.1635    0.4314   -2.7997 H       1  UNL1        0.0636
     27 H          -5.4224    0.3511   -2.0112 H       1  UNL1        0.0618
     28 H          -5.8869   -0.4004    0.2413 H       1  UNL1        0.0618
     29 H          -4.0627   -1.0500    1.6517 H       1  UNL1        0.0621
     30 H          -0.7305   -1.6041    0.6548 H       1  UNL1        0.0317
     31 H          -1.9590   -1.6583    1.9521 H       1  UNL1        0.0317
     32 H          -0.1220   -0.3310    2.5999 H       1  UNL1        0.0332
     33 H          -1.6232    0.6299    2.3536 H       1  UNL1        0.0332
     34 H           0.3722    3.6781   -0.5580 H       1  UNL1        0.1889
     35 H           2.9670    2.8985   -1.3862 H       1  UNL1        0.0639
     36 H           4.5466    1.0821   -1.1815 H       1  UNL1        0.0618
     37 H           1.8644   -0.9923    1.1912 H       1  UNL1        0.0625
@<TRIPOS>UNITY_ATOM_ATTR
21 1
charge -1
@<TRIPOS>BOND
     1     1     2    1
     2     2     3   ar
     3     2     7   ar
     4     3     4   ar
     5     4     5   ar
     6     5     6   ar
     7     6     7   ar
     8     7     8    1
     9     8     9    1
    10     9    10    1
    11    10    11   ar
    12    10    23   ar
    13    11    12   ar
    14    12    13   ar
    15    13    14   ar
    16    13    23   ar
    17    14    15   ar
    18    15    16   ar
    19    16    17    1
    20    16    22   ar
    21    17    18   ar
    22    17    21   ar
    23    18    19   ar
    24    19    20   ar
    25    20    21   ar
    26    22    23   ar
    27     1    24    1
    28     1    25    1
    29     3    26    1
    30     4    27    1
    31     5    28    1
    32     6    29    1
    33     8    30    1
    34     8    31    1
    35     9    32    1
    36     9    33    1
    37    12    34    1
    38    14    35    1
    39    15    36    1
    40    22    37    1
@<TRIPOS>MOLECULE
../data/bude_mols_rdkit_confs_charged/molecule_73.pdb
 37 40 0 0 0
SMALL
GASTEIGER

@<TRIPOS>ATOM
      1  N1        -3.7280    0.7900    1.6850 N.pl3   1  UNL1       -0.3577
      2  C1        -3.4690    0.6540    0.3070 C.ar    1  UNL1        0.0278
      3  C2        -4.4870    0.2590   -0.5540 C.ar    1  UNL1       -0.0408
      4  C3        -4.2520    0.1210   -1.9020 C.ar    1  UNL1       -0.0600
      5  C4        -2.9810    0.3850   -2.3580 C.ar    1  UNL1       -0.0614
      6  C5        -1.9640    0.7810   -1.4910 C.ar    1  UNL1       -0.0568
      7  C6        -2.1980    0.9200   -0.1420 C.ar    1  UNL1       -0.0264
      8  C7        -1.1470    1.3310    0.7730 C.3     1  UNL1       -0.0205
      9  C8        -0.5690    0.2260    1.6110 C.3     1  UNL1       -0.0040
     10  C9         0.0370   -0.8520    0.8210 C.ar    1  UNL1        0.0708
     11  N2        -0.5160   -2.0720    0.5960 N.ar    1  UNL1       -0.1777
     12  N3         0.3010   -2.8130   -0.1640 N.ar    1  UNL1       -0.2767
     13  C10        1.3940   -2.1270   -0.4600 C.ar    1  UNL1        0.0660
     14  C11        2.5190   -2.4080   -1.1890 C.ar    1  UNL1       -0.0363
     15  C12        3.5450   -1.4670   -1.3390 C.ar    1  UNL1       -0.0580
     16  C13        3.3910   -0.2400   -0.7290 C.ar    1  UNL1       -0.0310
     17  C14        4.4140    0.7900   -0.8410 C.ar    1  UNL1        0.0432
     18  N4         4.3600    1.9960   -0.2940 N.ar    1  UNL1       -0.2895
     19  N5         5.4570    2.6320   -0.6140 N.ar    1  UNL1       -0.2180
     20  N6         6.2230    1.8440   -1.3670 N.ar    1  UNL1       -0.2180
     21  N7         5.5840    0.6970   -1.5130 N.ar    1  UNL1       -0.2895
     22  C15        2.2480    0.0270    0.0030 C.ar    1  UNL1       -0.0491
     23  C16        1.2380   -0.9000    0.1510 C.ar    1  UNL1        0.0227
     24 H          -4.6289    0.6064    2.0370 H       1  UNL1        0.1423
     25 H          -3.0081    1.0686    2.2960 H       1  UNL1        0.1423
     26 H          -5.4286    0.0674   -0.1776 H       1  UNL1        0.0636
     27 H          -5.0020   -0.1701   -2.5483 H       1  UNL1        0.0618
     28 H          -2.7760    0.2876   -3.3647 H       1  UNL1        0.0618
     29 H          -1.0219    0.9727   -1.8661 H       1  UNL1        0.0621
     30 H          -1.5507    2.0712    1.4318 H       1  UNL1        0.0317
     31 H          -0.3460    1.6963    0.1648 H       1  UNL1        0.0317
     32 H          -1.3525   -0.1912    2.2084 H       1  UNL1        0.0332
     33 H           0.2095    0.6563    2.2057 H       1  UNL1        0.0332
     34 H           0.1157   -3.7337   -0.4595 H       1  UNL1        0.1889
     35 H           2.6124   -3.3329   -1.6372 H       1  UNL1        0.0639
     36 H           4.3904   -1.6851   -1.8892 H       1  UNL1        0.0618
     37 H           2.1479    0.9503    0.4531 H       1  UNL1        0.0625
@<TRIPOS>UNITY_ATOM_ATTR
21 1
charge -1
@<TRIPOS>BOND
     1     1     2    1
     2     2     3   ar
     3     2     7   ar
     4     3     4   ar
     5     4     5   ar
     6     5     6   ar
     7     6     7   ar
     8     7     8    1
     9     8     9    1
    10     9    10    1
    11    10    11   ar
    12    10    23   ar
    13    11    12   ar
    14    12    13   ar
    15    13    14   ar
    16    13    23   ar
    17    14    15   ar
    18    15    16   ar
    19    16    17    1
    20    16    22   ar
    21    17    18   ar
    22    17    21   ar
    23    18    19   ar
    24    19    20   ar
    25    20    21   ar
    26    22    23   ar
    27     1    24    1
    28     1    25    1
    29     3    26    1
    30     4    27    1
    31     5    28    1
    32     6    29    1
    33     8    30    1
    34     8    31    1
    35     9    32    1
    36     9    33    1
    37    12    34    1
    38    14    35    1
    39    15    36    1
    40    22    37    1
@<TRIPOS>MOLECULE
../data/bude_mols_rdkit_confs_charged/molecule_73.pdb
 37 40 0 0 0
SMALL
GASTEIGER

@<TRIPOS>ATOM
      1  N1        -2.5890    2.2830   -0.6650 N.pl3   1  UNL1       -0.3577
      2  C1        -3.3070    1.2620    0.0000 C.ar    1  UNL1        0.0278
      3  C2        -4.5110    1.4840    0.6300 C.ar    1  UNL1       -0.0408
      4  C3        -5.1990    0.4620    1.2700 C.ar    1  UNL1       -0.0600
      5  C4        -4.6810   -0.8080    1.2830 C.ar    1  UNL1       -0.0614
      6  C5        -3.4790   -1.0600    0.6620 C.ar    1  UNL1       -0.0568
      7  C6        -2.7990   -0.0430    0.0290 C.ar    1  UNL1       -0.0264
      8  C7        -1.4920   -0.2560   -0.6510 C.3     1  UNL1       -0.0205
      9  C8        -0.7340   -1.4390   -0.0820 C.3     1  UNL1       -0.0040
     10  C9         0.5680   -1.6860   -0.7130 C.ar    1  UNL1        0.0708
     11  N2         0.7760   -2.6810   -1.6300 N.ar    1  UNL1       -0.1777
     12  N3         2.0100   -2.6940   -2.0300 N.ar    1  UNL1       -0.2767
     13  C10        2.6630   -1.7020   -1.3850 C.ar    1  UNL1        0.0660
     14  C11        3.9740   -1.2760   -1.4240 C.ar    1  UNL1       -0.0363
     15  C12        4.3590   -0.2100   -0.6240 C.ar    1  UNL1       -0.0580
     16  C13        3.4700    0.4330    0.2060 C.ar    1  UNL1       -0.0310
     17  C14        3.9540    1.5510    1.0250 C.ar    1  UNL1        0.0432
     18  N4         5.1960    2.0400    1.0770 N.ar    1  UNL1       -0.2895
     19  N5         5.2190    3.0430    1.9290 N.ar    1  UNL1       -0.2180
     20  N6         3.9980    3.1850    2.4100 N.ar    1  UNL1       -0.2180
     21  N7         3.2100    2.2830    1.8720 N.ar    1  UNL1       -0.2895
     22  C15        2.1590    0.0100    0.2470 C.ar    1  UNL1       -0.0491
     23  C16        1.7810   -1.0530   -0.5530 C.ar    1  UNL1        0.0227
     24 H          -2.9444    3.2008   -0.6865 H       1  UNL1        0.1423
     25 H          -1.7337    2.0759   -1.1065 H       1  UNL1        0.1423
     26 H          -4.9124    2.4347    0.6264 H       1  UNL1        0.0636
     27 H          -6.0991    0.6576    1.7354 H       1  UNL1        0.0618
     28 H          -5.1901   -1.5708    1.7562 H       1  UNL1        0.0618
     29 H          -3.0858   -2.0141    0.6706 H       1  UNL1        0.0621
     30 H          -0.8952    0.6242   -0.5330 H       1  UNL1        0.0317
     31 H          -1.6889   -0.4589   -1.6830 H       1  UNL1        0.0317
     32 H          -1.3373   -2.3139   -0.2062 H       1  UNL1        0.0332
     33 H          -0.5370   -1.2100    0.9445 H       1  UNL1        0.0332
     34 H           2.4009   -3.3153   -2.6860 H       1  UNL1        0.1889
     35 H           4.6584   -1.7432   -2.0391 H       1  UNL1        0.0639
     36 H           5.3398    0.1096   -0.6523 H       1  UNL1        0.0618
     37 H           1.4738    0.4766    0.8617 H       1  UNL1        0.0625
@<TRIPOS>UNITY_ATOM_ATTR
21 1
charge -1
@<TRIPOS>BOND
     1     1     2    1
     2     2     3   ar
     3     2     7   ar
     4     3     4   ar
     5     4     5   ar
     6     5     6   ar
     7     6     7   ar
     8     7     8    1
     9     8     9    1
    10     9    10    1
    11    10    11   ar
    12    10    23   ar
    13    11    12   ar
    14    12    13   ar
    15    13    14   ar
    16    13    23   ar
    17    14    15   ar
    18    15    16   ar
    19    16    17    1
    20    16    22   ar
    21    17    18   ar
    22    17    21   ar
    23    18    19   ar
    24    19    20   ar
    25    20    21   ar
    26    22    23   ar
    27     1    24    1
    28     1    25    1
    29     3    26    1
    30     4    27    1
    31     5    28    1
    32     6    29    1
    33     8    30    1
    34     8    31    1
    35     9    32    1
    36     9    33    1
    37    12    34    1
    38    14    35    1
    39    15    36    1
    40    22    37    1
@<TRIPOS>MOLECULE
../data/bude_mols_rdkit_confs_charged/molecule_73.pdb
 37 40 0 0 0
SMALL
GASTEIGER

@<TRIPOS>ATOM
      1  N1        -2.1760   -1.8810   -0.8230 N.pl3   1  UNL1       -0.3577
      2  C1        -3.2810   -1.0160   -0.8090 C.ar    1  UNL1        0.0278
      3  C2        -4.5250   -1.4630   -1.2340 C.ar    1  UNL1       -0.0408
      4  C3        -5.5890   -0.5940   -1.2050 C.ar    1  UNL1       -0.0600
      5  C4        -5.4600    0.7090   -0.7680 C.ar    1  UNL1       -0.0614
      6  C5        -4.2260    1.1100   -0.3600 C.ar    1  UNL1       -0.0568
      7  C6        -3.1020    0.2710   -0.3650 C.ar    1  UNL1       -0.0264
      8  C7        -1.8800    0.8900    0.1020 C.3     1  UNL1       -0.0205
      9  C8        -0.6000    0.1820   -0.0670 C.3     1  UNL1       -0.0040
     10  C9         0.4680    1.0830    0.5140 C.ar    1  UNL1        0.0708
     11  N2         0.3230    2.2870    1.0970 N.ar    1  UNL1       -0.1777
     12  N3         1.5090    2.7470    1.4730 N.ar    1  UNL1       -0.2767
     13  C10        2.4480    1.8340    1.1340 C.ar    1  UNL1        0.0660
     14  C11        3.8160    1.7560    1.2640 C.ar    1  UNL1       -0.0363
     15  C12        4.5070    0.6620    0.8030 C.ar    1  UNL1       -0.0580
     16  C13        3.8890   -0.4110    0.1910 C.ar    1  UNL1       -0.0310
     17  C14        4.6110   -1.5630   -0.2970 C.ar    1  UNL1        0.0432
     18  N4         5.9240   -1.8010   -0.2550 N.ar    1  UNL1       -0.2895
     19  N5         6.1710   -2.9910   -0.8200 N.ar    1  UNL1       -0.2180
     20  N6         5.0120   -3.5030   -1.2180 N.ar    1  UNL1       -0.2180
     21  N7         4.0650   -2.6270   -0.8960 N.ar    1  UNL1       -0.2895
     22  C15        2.5070   -0.3220    0.0640 C.ar    1  UNL1       -0.0491
     23  C16        1.8110    0.7740    0.5260 C.ar    1  UNL1        0.0227
     24 H          -2.2806   -2.8081   -1.1372 H       1  UNL1        0.1423
     25 H          -1.2962   -1.5607   -0.5186 H       1  UNL1        0.1423
     26 H          -4.6485   -2.4322   -1.5663 H       1  UNL1        0.0636
     27 H          -6.5140   -0.9261   -1.5199 H       1  UNL1        0.0618
     28 H          -6.2667    1.3525   -0.7515 H       1  UNL1        0.0618
     29 H          -4.1109    2.0810   -0.0300 H       1  UNL1        0.0621
     30 H          -2.0016    1.0679    1.1501 H       1  UNL1        0.0317
     31 H          -1.7771    1.7501   -0.5261 H       1  UNL1        0.0317
     32 H          -0.4097    0.0045   -1.1049 H       1  UNL1        0.0332
     33 H          -0.6149   -0.7681    0.4249 H       1  UNL1        0.0332
     34 H           1.6773    3.6067    1.9224 H       1  UNL1        0.1889
     35 H           4.3295    2.5299    1.7139 H       1  UNL1        0.0639
     36 H           5.5323    0.6409    0.9189 H       1  UNL1        0.0618
     37 H           1.9911   -1.0940   -0.3863 H       1  UNL1        0.0625
@<TRIPOS>UNITY_ATOM_ATTR
21 1
charge -1
@<TRIPOS>BOND
     1     1     2    1
     2     2     3   ar
     3     2     7   ar
     4     3     4   ar
     5     4     5   ar
     6     5     6   ar
     7     6     7   ar
     8     7     8    1
     9     8     9    1
    10     9    10    1
    11    10    11   ar
    12    10    23   ar
    13    11    12   ar
    14    12    13   ar
    15    13    14   ar
    16    13    23   ar
    17    14    15   ar
    18    15    16   ar
    19    16    17    1
    20    16    22   ar
    21    17    18   ar
    22    17    21   ar
    23    18    19   ar
    24    19    20   ar
    25    20    21   ar
    26    22    23   ar
    27     1    24    1
    28     1    25    1
    29     3    26    1
    30     4    27    1
    31     5    28    1
    32     6    29    1
    33     8    30    1
    34     8    31    1
    35     9    32    1
    36     9    33    1
    37    12    34    1
    38    14    35    1
    39    15    36    1
    40    22    37    1
@<TRIPOS>MOLECULE
../data/bude_mols_rdkit_confs_charged/molecule_73.pdb
 37 40 0 0 0
SMALL
GASTEIGER

@<TRIPOS>ATOM
      1  N1        -2.3970    1.4400   -1.8250 N.pl3   1  UNL1       -0.3577
      2  C1        -2.2090    1.1140   -0.4430 C.ar    1  UNL1        0.0278
      3  C2        -2.1010    2.0550    0.5250 C.ar    1  UNL1       -0.0408
      4  C3        -1.9210    1.7320    1.8450 C.ar    1  UNL1       -0.0600
      5  C4        -1.8490    0.3980    2.1960 C.ar    1  UNL1       -0.0614
      6  C5        -1.9580   -0.5610    1.2160 C.ar    1  UNL1       -0.0568
      7  C6        -2.1410   -0.2490   -0.1330 C.ar    1  UNL1       -0.0264
      8  C7        -2.2560   -1.2820   -1.1660 C.3     1  UNL1       -0.0205
      9  C8        -1.0470   -1.5560   -1.9760 C.3     1  UNL1       -0.0040
     10  C9         0.1310   -2.0450   -1.2570 C.ar    1  UNL1        0.0708
     11  N2         0.5050   -3.3420   -1.1290 N.ar    1  UNL1       -0.1777
     12  N3         1.5800   -3.4160   -0.3990 N.ar    1  UNL1       -0.2767
     13  C10        1.9860   -2.1950   -0.0010 C.ar    1  UNL1        0.0660
     14  C11        3.0230   -1.7050    0.7500 C.ar    1  UNL1       -0.0363
     15  C12        3.1760   -0.3540    0.9780 C.ar    1  UNL1       -0.0580
     16  C13        2.2740    0.5540    0.4460 C.ar    1  UNL1       -0.0310
     17  C14        2.4210    1.9840    0.6770 C.ar    1  UNL1        0.0432
     18  N4         1.6630    2.9790    0.2520 N.ar    1  UNL1       -0.2895
     19  N5         2.1680    4.1400    0.7010 N.ar    1  UNL1       -0.2180
     20  N6         3.2500    3.8700    1.4100 N.ar    1  UNL1       -0.2180
     21  N7         3.4090    2.5400    1.3970 N.ar    1  UNL1       -0.2895
     22  C15        1.2380    0.0350   -0.3050 C.ar    1  UNL1       -0.0491
     23  C16        1.0470   -1.3140   -0.5570 C.ar    1  UNL1        0.0227
     24 H          -2.4527    2.3821   -2.1054 H       1  UNL1        0.1423
     25 H          -2.4705    0.7220   -2.4945 H       1  UNL1        0.1423
     26 H          -2.1562    3.0507    0.2594 H       1  UNL1        0.0636
     27 H          -1.8409    2.4702    2.5617 H       1  UNL1        0.0618
     28 H          -1.7150    0.1241    3.1819 H       1  UNL1        0.0618
     29 H          -1.9021   -1.5545    1.4895 H       1  UNL1        0.0621
     30 H          -3.0339   -0.9831   -1.8371 H       1  UNL1        0.0317
     31 H          -2.4467   -2.1900   -0.6330 H       1  UNL1        0.0317
     32 H          -0.7724   -0.6455   -2.4663 H       1  UNL1        0.0332
     33 H          -1.3248   -2.3527   -2.6340 H       1  UNL1        0.0332
     34 H           2.0376   -4.2564   -0.1675 H       1  UNL1        0.1889
     35 H           3.7063   -2.3640    1.1548 H       1  UNL1        0.0639
     36 H           3.9671   -0.0166    1.5484 H       1  UNL1        0.0618
     37 H           0.5578    0.6989   -0.7071 H       1  UNL1        0.0625
@<TRIPOS>UNITY_ATOM_ATTR
21 1
charge -1
@<TRIPOS>BOND
     1     1     2    1
     2     2     3   ar
     3     2     7   ar
     4     3     4   ar
     5     4     5   ar
     6     5     6   ar
     7     6     7   ar
     8     7     8    1
     9     8     9    1
    10     9    10    1
    11    10    11   ar
    12    10    23   ar
    13    11    12   ar
    14    12    13   ar
    15    13    14   ar
    16    13    23   ar
    17    14    15   ar
    18    15    16   ar
    19    16    17    1
    20    16    22   ar
    21    17    18   ar
    22    17    21   ar
    23    18    19   ar
    24    19    20   ar
    25    20    21   ar
    26    22    23   ar
    27     1    24    1
    28     1    25    1
    29     3    26    1
    30     4    27    1
    31     5    28    1
    32     6    29    1
    33     8    30    1
    34     8    31    1
    35     9    32    1
    36     9    33    1
    37    12    34    1
    38    14    35    1
    39    15    36    1
    40    22    37    1
@<TRIPOS>MOLECULE
../data/bude_mols_rdkit_confs_charged/molecule_73.pdb
 37 40 0 0 0
SMALL
GASTEIGER

@<TRIPOS>ATOM
      1  N1        -1.6240    2.0390    0.2040 N.pl3   1  UNL1       -0.3577
      2  C1        -2.7850    1.2220    0.2290 C.ar    1  UNL1        0.0278
      3  C2        -4.0510    1.8040    0.1500 C.ar    1  UNL1       -0.0408
      4  C3        -5.1980    1.0480    0.1860 C.ar    1  UNL1       -0.0600
      5  C4        -5.1650   -0.3370    0.3030 C.ar    1  UNL1       -0.0614
      6  C5        -3.9180   -0.9150    0.3810 C.ar    1  UNL1       -0.0568
      7  C6        -2.7460   -0.1510    0.3450 C.ar    1  UNL1       -0.0264
      8  C7        -1.4600   -0.8530    0.4020 C.3     1  UNL1       -0.0205
      9  C8        -0.8430   -1.0270   -0.9760 C.3     1  UNL1       -0.0040
     10  C9         0.4670   -1.7170   -0.8820 C.ar    1  UNL1        0.0708
     11  N2         0.7120   -3.0090   -1.1300 N.ar    1  UNL1       -0.1777
     12  N3         1.9870   -3.2770   -0.9350 N.ar    1  UNL1       -0.2767
     13  C10        2.6210   -2.1380   -0.5450 C.ar    1  UNL1        0.0660
     14  C11        3.9570   -1.8830   -0.2230 C.ar    1  UNL1       -0.0363
     15  C12        4.2830   -0.5880    0.1340 C.ar    1  UNL1       -0.0580
     16  C13        3.3500    0.4240    0.1780 C.ar    1  UNL1       -0.0310
     17  C14        3.7280    1.7960    0.5530 C.ar    1  UNL1        0.0432
     18  N4         2.9320    2.8700    0.6380 N.ar    1  UNL1       -0.2895
     19  N5         3.6640    3.9070    1.0040 N.ar    1  UNL1       -0.2180
     20  N6         4.9220    3.5200    1.1570 N.ar    1  UNL1       -0.2180
     21  N7         4.9590    2.2240    0.8800 N.ar    1  UNL1       -0.2895
     22  C15        2.0310    0.1600   -0.1420 C.ar    1  UNL1       -0.0491
     23  C16        1.6710   -1.1420   -0.5070 C.ar    1  UNL1        0.0227
     24 H          -1.7113    3.0160    0.1192 H       1  UNL1        0.1423
     25 H          -0.7317    1.6285    0.2714 H       1  UNL1        0.1423
     26 H          -4.1278    2.8294    0.0622 H       1  UNL1        0.0636
     27 H          -6.1121    1.5230    0.1243 H       1  UNL1        0.0618
     28 H          -6.0287   -0.9013    0.3299 H       1  UNL1        0.0618
     29 H          -3.8454   -1.9407    0.4685 H       1  UNL1        0.0621
     30 H          -1.6130   -1.8189    0.8362 H       1  UNL1        0.0317
     31 H          -0.7888   -0.2645    0.9920 H       1  UNL1        0.0317
     32 H          -0.7016   -0.0644   -1.4214 H       1  UNL1        0.0332
     33 H          -1.5017   -1.6206   -1.5748 H       1  UNL1        0.0332
     34 H           2.4117   -4.1574   -1.0523 H       1  UNL1        0.1889
     35 H           4.6693   -2.6293   -0.2506 H       1  UNL1        0.0639
     36 H           5.2624   -0.3714    0.3767 H       1  UNL1        0.0618
     37 H           1.3237    0.9109   -0.1121 H       1  UNL1        0.0625
@<TRIPOS>UNITY_ATOM_ATTR
21 1
charge -1
@<TRIPOS>BOND
     1     1     2    1
     2     2     3   ar
     3     2     7   ar
     4     3     4   ar
     5     4     5   ar
     6     5     6   ar
     7     6     7   ar
     8     7     8    1
     9     8     9    1
    10     9    10    1
    11    10    11   ar
    12    10    23   ar
    13    11    12   ar
    14    12    13   ar
    15    13    14   ar
    16    13    23   ar
    17    14    15   ar
    18    15    16   ar
    19    16    17    1
    20    16    22   ar
    21    17    18   ar
    22    17    21   ar
    23    18    19   ar
    24    19    20   ar
    25    20    21   ar
    26    22    23   ar
    27     1    24    1
    28     1    25    1
    29     3    26    1
    30     4    27    1
    31     5    28    1
    32     6    29    1
    33     8    30    1
    34     8    31    1
    35     9    32    1
    36     9    33    1
    37    12    34    1
    38    14    35    1
    39    15    36    1
    40    22    37    1
@<TRIPOS>MOLECULE
../data/bude_mols_rdkit_confs_charged/molecule_73.pdb
 37 40 0 0 0
SMALL
GASTEIGER

@<TRIPOS>ATOM
      1  N1         1.3950    0.0960   -2.1990 N.pl3   1  UNL1       -0.3577
      2  C1         2.6360   -0.2870   -1.6380 C.ar    1  UNL1        0.0278
      3  C2         3.7940   -0.4050   -2.4090 C.ar    1  UNL1       -0.0408
      4  C3         4.9750   -0.7760   -1.8290 C.ar    1  UNL1       -0.0600
      5  C4         5.0310   -1.0370   -0.4820 C.ar    1  UNL1       -0.0614
      6  C5         3.8740   -0.9140    0.2580 C.ar    1  UNL1       -0.0568
      7  C6         2.6700   -0.5420   -0.2920 C.ar    1  UNL1       -0.0264
      8  C7         1.4950   -0.4360    0.5550 C.3     1  UNL1       -0.0205
      9  C8         0.5230   -1.5750    0.4270 C.3     1  UNL1       -0.0040
     10  C9        -0.6080   -1.3140    1.3520 C.ar    1  UNL1        0.0708
     11  N2        -0.8020   -1.9230    2.5320 N.ar    1  UNL1       -0.1777
     12  N3        -1.8920   -1.4810    3.1260 N.ar    1  UNL1       -0.2767
     13  C10       -2.4270   -0.5540    2.3100 C.ar    1  UNL1        0.0660
     14  C11       -3.5630    0.2310    2.4230 C.ar    1  UNL1       -0.0363
     15  C12       -3.8740    1.1180    1.4030 C.ar    1  UNL1       -0.0580
     16  C13       -3.1030    1.2610    0.2710 C.ar    1  UNL1       -0.0310
     17  C14       -3.4690    2.2170   -0.7920 C.ar    1  UNL1        0.0432
     18  N4        -2.8470    2.4760   -1.9310 N.ar    1  UNL1       -0.2895
     19  N5        -3.5540    3.4080   -2.5550 N.ar    1  UNL1       -0.2180
     20  N6        -4.6060    3.7430   -1.8380 N.ar    1  UNL1       -0.2180
     21  N7        -4.5560    3.0050   -0.7430 N.ar    1  UNL1       -0.2895
     22  C15       -1.9740    0.4760    0.1660 C.ar    1  UNL1       -0.0491
     23  C16       -1.6460   -0.4160    1.1730 C.ar    1  UNL1        0.0227
     24 H           1.3286    0.2880   -3.1623 H       1  UNL1        0.1423
     25 H           0.5978    0.1705   -1.6261 H       1  UNL1        0.1423
     26 H           3.7582   -0.2111   -3.4220 H       1  UNL1        0.0636
     27 H           5.8270   -0.8602   -2.4052 H       1  UNL1        0.0618
     28 H           5.9173   -1.3183   -0.0345 H       1  UNL1        0.0618
     29 H           3.9136   -1.1100    1.2704 H       1  UNL1        0.0621
     30 H           0.9829    0.4690    0.3026 H       1  UNL1        0.0317
     31 H           1.8483   -0.4526    1.5649 H       1  UNL1        0.0317
     32 H           1.0032   -2.4943    0.6899 H       1  UNL1        0.0332
     33 H           0.1708   -1.6537   -0.5803 H       1  UNL1        0.0332
     34 H          -2.2461   -1.7722    3.9972 H       1  UNL1        0.1889
     35 H          -4.1695    0.1568    3.2547 H       1  UNL1        0.0639
     36 H          -4.7226    1.6977    1.4968 H       1  UNL1        0.0618
     37 H          -1.3704    0.5538   -0.6675 H       1  UNL1        0.0625
@<TRIPOS>UNITY_ATOM_ATTR
21 1
charge -1
@<TRIPOS>BOND
     1     1     2    1
     2     2     3   ar
     3     2     7   ar
     4     3     4   ar
     5     4     5   ar
     6     5     6   ar
     7     6     7   ar
     8     7     8    1
     9     8     9    1
    10     9    10    1
    11    10    11   ar
    12    10    23   ar
    13    11    12   ar
    14    12    13   ar
    15    13    14   ar
    16    13    23   ar
    17    14    15   ar
    18    15    16   ar
    19    16    17    1
    20    16    22   ar
    21    17    18   ar
    22    17    21   ar
    23    18    19   ar
    24    19    20   ar
    25    20    21   ar
    26    22    23   ar
    27     1    24    1
    28     1    25    1
    29     3    26    1
    30     4    27    1
    31     5    28    1
    32     6    29    1
    33     8    30    1
    34     8    31    1
    35     9    32    1
    36     9    33    1
    37    12    34    1
    38    14    35    1
    39    15    36    1
    40    22    37    1
@<TRIPOS>MOLECULE
../data/bude_mols_rdkit_confs_charged/molecule_73.pdb
 37 40 0 0 0
SMALL
GASTEIGER

@<TRIPOS>ATOM
      1  N1        -4.0050   -1.2500    0.0370 N.pl3   1  UNL1       -0.3577
      2  C1        -3.7560    0.1450   -0.1370 C.ar    1  UNL1        0.0278
      3  C2        -4.8740    0.9720   -0.0700 C.ar    1  UNL1       -0.0408
      4  C3        -4.7050    2.3270   -0.2280 C.ar    1  UNL1       -0.0600
      5  C4        -3.4650    2.8850   -0.4510 C.ar    1  UNL1       -0.0614
      6  C5        -2.3720    2.0350   -0.5130 C.ar    1  UNL1       -0.0568
      7  C6        -2.5040    0.6740   -0.3590 C.ar    1  UNL1       -0.0264
      8  C7        -1.3490   -0.2160   -0.4270 C.3     1  UNL1       -0.0205
      9  C8        -0.8830   -0.7280    0.9110 C.3     1  UNL1       -0.0040
     10  C9         0.2920   -1.6100    0.6760 C.ar    1  UNL1        0.0708
     11  N2         0.3100   -2.9650    0.6820 N.ar    1  UNL1       -0.1777
     12  N3         1.5130   -3.4270    0.4360 N.ar    1  UNL1       -0.2767
     13  C10        2.3530   -2.3890    0.2550 C.ar    1  UNL1        0.0660
     14  C11        3.7190   -2.3540   -0.0240 C.ar    1  UNL1       -0.0363
     15  C12        4.3170   -1.1170   -0.1510 C.ar    1  UNL1       -0.0580
     16  C13        3.5690    0.0380   -0.0050 C.ar    1  UNL1       -0.0310
     17  C14        4.2360    1.3450   -0.1390 C.ar    1  UNL1        0.0432
     18  N4         3.6770    2.5550   -0.0400 N.ar    1  UNL1       -0.2895
     19  N5         4.6070    3.4680   -0.2140 N.ar    1  UNL1       -0.2180
     20  N6         5.7400    2.8360   -0.4190 N.ar    1  UNL1       -0.2180
     21  N7         5.5460    1.5440   -0.3790 N.ar    1  UNL1       -0.2895
     22  C15        2.2160   -0.0080    0.2710 C.ar    1  UNL1       -0.0491
     23  C16        1.5950   -1.2420    0.4040 C.ar    1  UNL1        0.0227
     24 H          -4.9227   -1.5705    0.1930 H       1  UNL1        0.1423
     25 H          -3.2590   -1.8914    0.0010 H       1  UNL1        0.1423
     26 H          -5.8122    0.5751    0.0952 H       1  UNL1        0.0636
     27 H          -5.5306    2.9442   -0.1782 H       1  UNL1        0.0618
     28 H          -3.3536    3.9043   -0.5682 H       1  UNL1        0.0618
     29 H          -1.4345    2.4333   -0.6790 H       1  UNL1        0.0621
     30 H          -0.5408    0.3176   -0.8819 H       1  UNL1        0.0317
     31 H          -1.6532   -1.0710   -0.9939 H       1  UNL1        0.0317
     32 H          -1.6671   -1.2838    1.3813 H       1  UNL1        0.0332
     33 H          -0.6166    0.0870    1.5511 H       1  UNL1        0.0332
     34 H           1.7619   -4.3785    0.3909 H       1  UNL1        0.1889
     35 H           4.2640   -3.2237   -0.1318 H       1  UNL1        0.0639
     36 H           5.3265   -1.0529   -0.3558 H       1  UNL1        0.0618
     37 H           1.6742    0.8639    0.3769 H       1  UNL1        0.0625
@<TRIPOS>UNITY_ATOM_ATTR
21 1
charge -1
@<TRIPOS>BOND
     1     1     2    1
     2     2     3   ar
     3     2     7   ar
     4     3     4   ar
     5     4     5   ar
     6     5     6   ar
     7     6     7   ar
     8     7     8    1
     9     8     9    1
    10     9    10    1
    11    10    11   ar
    12    10    23   ar
    13    11    12   ar
    14    12    13   ar
    15    13    14   ar
    16    13    23   ar
    17    14    15   ar
    18    15    16   ar
    19    16    17    1
    20    16    22   ar
    21    17    18   ar
    22    17    21   ar
    23    18    19   ar
    24    19    20   ar
    25    20    21   ar
    26    22    23   ar
    27     1    24    1
    28     1    25    1
    29     3    26    1
    30     4    27    1
    31     5    28    1
    32     6    29    1
    33     8    30    1
    34     8    31    1
    35     9    32    1
    36     9    33    1
    37    12    34    1
    38    14    35    1
    39    15    36    1
    40    22    37    1
@<TRIPOS>MOLECULE
../data/bude_mols_rdkit_confs_charged/molecule_73.pdb
 37 40 0 0 0
SMALL
GASTEIGER

@<TRIPOS>ATOM
      1  N1        -3.7780   -1.2940   -0.6960 N.pl3   1  UNL1       -0.3577
      2  C1        -3.6990   -0.0100   -0.0640 C.ar    1  UNL1        0.0278
      3  C2        -4.8740    0.6950    0.0400 C.ar    1  UNL1       -0.0408
      4  C3        -4.8620    1.9300    0.6360 C.ar    1  UNL1       -0.0600
      5  C4        -3.6880    2.4440    1.1170 C.ar    1  UNL1       -0.0614
      6  C5        -2.5070    1.7080    1.0000 C.ar    1  UNL1       -0.0568
      7  C6        -2.4910    0.4640    0.4050 C.ar    1  UNL1       -0.0264
      8  C7        -1.3080   -0.3820    0.2350 C.3     1  UNL1       -0.0205
      9  C8        -0.7650   -0.3950   -1.1670 C.3     1  UNL1       -0.0040
     10  C9         0.4220   -1.2890   -1.1870 C.ar    1  UNL1        0.0708
     11  N2         0.4840   -2.5440   -1.6900 N.ar    1  UNL1       -0.1777
     12  N3         1.7020   -3.0440   -1.5380 N.ar    1  UNL1       -0.2767
     13  C10        2.4500   -2.1180   -0.9330 C.ar    1  UNL1        0.0660
     14  C11        3.7590   -2.0720   -0.5260 C.ar    1  UNL1       -0.0363
     15  C12        4.2760   -0.9720    0.0840 C.ar    1  UNL1       -0.0580
     16  C13        3.5210    0.1700    0.3350 C.ar    1  UNL1       -0.0310
     17  C14        4.0840    1.3320    0.9850 C.ar    1  UNL1        0.0432
     18  N4         3.4770    2.4840    1.2820 N.ar    1  UNL1       -0.2895
     19  N5         4.3740    3.2860    1.8830 N.ar    1  UNL1       -0.2180
     20  N6         5.5240    2.6410    1.9580 N.ar    1  UNL1       -0.2180
     21  N7         5.3420    1.4590    1.4130 N.ar    1  UNL1       -0.2895
     22  C15        2.1940    0.1210   -0.0780 C.ar    1  UNL1       -0.0491
     23  C16        1.6800   -1.0000   -0.6960 C.ar    1  UNL1        0.0227
     24 H          -4.6429   -1.6266   -1.0285 H       1  UNL1        0.1423
     25 H          -2.9674   -1.8434   -0.7976 H       1  UNL1        0.1423
     26 H          -5.7544    0.3000   -0.3258 H       1  UNL1        0.0636
     27 H          -5.7366    2.4710    0.7218 H       1  UNL1        0.0618
     28 H          -3.6757    3.3735    1.5652 H       1  UNL1        0.0618
     29 H          -1.6272    2.1036    1.3667 H       1  UNL1        0.0621
     30 H          -1.5688   -1.3841    0.5046 H       1  UNL1        0.0317
     31 H          -0.5420    0.0256    0.8611 H       1  UNL1        0.0317
     32 H          -0.4798    0.5950   -1.4559 H       1  UNL1        0.0332
     33 H          -1.5083   -0.7458   -1.8521 H       1  UNL1        0.0332
     34 H           2.0016   -3.9382   -1.8206 H       1  UNL1        0.1889
     35 H           4.3657   -2.8913   -0.6864 H       1  UNL1        0.0639
     36 H           5.2669   -0.9845    0.3721 H       1  UNL1        0.0618
     37 H           1.5831    0.9375    0.0806 H       1  UNL1        0.0625
@<TRIPOS>UNITY_ATOM_ATTR
21 1
charge -1
@<TRIPOS>BOND
     1     1     2    1
     2     2     3   ar
     3     2     7   ar
     4     3     4   ar
     5     4     5   ar
     6     5     6   ar
     7     6     7   ar
     8     7     8    1
     9     8     9    1
    10     9    10    1
    11    10    11   ar
    12    10    23   ar
    13    11    12   ar
    14    12    13   ar
    15    13    14   ar
    16    13    23   ar
    17    14    15   ar
    18    15    16   ar
    19    16    17    1
    20    16    22   ar
    21    17    18   ar
    22    17    21   ar
    23    18    19   ar
    24    19    20   ar
    25    20    21   ar
    26    22    23   ar
    27     1    24    1
    28     1    25    1
    29     3    26    1
    30     4    27    1
    31     5    28    1
    32     6    29    1
    33     8    30    1
    34     8    31    1
    35     9    32    1
    36     9    33    1
    37    12    34    1
    38    14    35    1
    39    15    36    1
    40    22    37    1
@<TRIPOS>MOLECULE
../data/bude_mols_rdkit_confs_charged/molecule_73.pdb
 37 40 0 0 0
SMALL
GASTEIGER

@<TRIPOS>ATOM
      1  N1        -2.7760   -1.4700    1.4770 N.pl3   1  UNL1       -0.3577
      2  C1        -3.4860   -0.3710    0.9170 C.ar    1  UNL1        0.0278
      3  C2        -4.5300    0.2100    1.6130 C.ar    1  UNL1       -0.0408
      4  C3        -5.2160    1.2740    1.0680 C.ar    1  UNL1       -0.0600
      5  C4        -4.8280    1.7240   -0.1680 C.ar    1  UNL1       -0.0614
      6  C5        -3.7870    1.1550   -0.8780 C.ar    1  UNL1       -0.0568
      7  C6        -3.0970    0.0870   -0.3340 C.ar    1  UNL1       -0.0264
      8  C7        -1.9710   -0.5570   -1.0580 C.3     1  UNL1       -0.0205
      9  C8        -0.6720   -0.0820   -0.4030 C.3     1  UNL1       -0.0040
     10  C9         0.4660   -0.7170   -1.1170 C.ar    1  UNL1        0.0708
     11  N2         0.4600   -1.5660   -2.1580 N.ar    1  UNL1       -0.1777
     12  N3         1.7080   -1.8940   -2.4890 N.ar    1  UNL1       -0.2767
     13  C10        2.5760   -1.2730   -1.6770 C.ar    1  UNL1        0.0660
     14  C11        3.9520   -1.2680   -1.5920 C.ar    1  UNL1       -0.0363
     15  C12        4.5360   -0.4960   -0.6110 C.ar    1  UNL1       -0.0580
     16  C13        3.7930    0.2580    0.2700 C.ar    1  UNL1       -0.0310
     17  C14        4.4420    1.0790    1.3140 C.ar    1  UNL1        0.0432
     18  N4         3.8150    1.8480    2.2200 N.ar    1  UNL1       -0.2895
     19  N5         4.7300    2.4370    2.9950 N.ar    1  UNL1       -0.2180
     20  N6         5.9180    2.0350    2.5720 N.ar    1  UNL1       -0.2180
     21  N7         5.7440    1.2100    1.5510 N.ar    1  UNL1       -0.2895
     22  C15        2.4180    0.2490    0.1800 C.ar    1  UNL1       -0.0491
     23  C16        1.7980   -0.5210   -0.8000 C.ar    1  UNL1        0.0227
     24 H          -3.0274   -1.8186    2.3627 H       1  UNL1        0.1423
     25 H          -2.0334   -1.8817    0.9786 H       1  UNL1        0.1423
     26 H          -4.7959   -0.1534    2.5416 H       1  UNL1        0.0636
     27 H          -5.9976    1.7184    1.5745 H       1  UNL1        0.0618
     28 H          -5.3342    2.5205   -0.5855 H       1  UNL1        0.0618
     29 H          -3.5271    1.5241   -1.8060 H       1  UNL1        0.0621
     30 H          -1.9870   -0.2694   -2.0885 H       1  UNL1        0.0317
     31 H          -2.0508   -1.6228   -1.0078 H       1  UNL1        0.0317
     32 H          -0.6594   -0.3700    0.6274 H       1  UNL1        0.0332
     33 H          -0.5967    0.9838   -0.4607 H       1  UNL1        0.0332
     34 H           1.9565   -2.5027   -3.2218 H       1  UNL1        0.1889
     35 H           4.5271   -1.8252   -2.2430 H       1  UNL1        0.0639
     36 H           5.5650   -0.4825   -0.5340 H       1  UNL1        0.0618
     37 H           1.8512    0.8098    0.8352 H       1  UNL1        0.0625
@<TRIPOS>UNITY_ATOM_ATTR
21 1
charge -1
@<TRIPOS>BOND
     1     1     2    1
     2     2     3   ar
     3     2     7   ar
     4     3     4   ar
     5     4     5   ar
     6     5     6   ar
     7     6     7   ar
     8     7     8    1
     9     8     9    1
    10     9    10    1
    11    10    11   ar
    12    10    23   ar
    13    11    12   ar
    14    12    13   ar
    15    13    14   ar
    16    13    23   ar
    17    14    15   ar
    18    15    16   ar
    19    16    17    1
    20    16    22   ar
    21    17    18   ar
    22    17    21   ar
    23    18    19   ar
    24    19    20   ar
    25    20    21   ar
    26    22    23   ar
    27     1    24    1
    28     1    25    1
    29     3    26    1
    30     4    27    1
    31     5    28    1
    32     6    29    1
    33     8    30    1
    34     8    31    1
    35     9    32    1
    36     9    33    1
    37    12    34    1
    38    14    35    1
    39    15    36    1
    40    22    37    1
@<TRIPOS>MOLECULE
../data/bude_mols_rdkit_confs_charged/molecule_73.pdb
 37 40 0 0 0
SMALL
GASTEIGER

@<TRIPOS>ATOM
      1  N1        -2.9690   -1.6320   -1.1900 N.pl3   1  UNL1       -0.3577
      2  C1        -3.3190   -0.4040   -0.5670 C.ar    1  UNL1        0.0278
      3  C2        -4.1280    0.5030   -1.2110 C.ar    1  UNL1       -0.0408
      4  C3        -4.4560    1.6920   -0.5960 C.ar    1  UNL1       -0.0600
      5  C4        -3.9680    1.9680    0.6730 C.ar    1  UNL1       -0.0614
      6  C5        -3.1560    1.0620    1.3240 C.ar    1  UNL1       -0.0568
      7  C6        -2.8310   -0.1160    0.7150 C.ar    1  UNL1       -0.0264
      8  C7        -1.9630   -1.0930    1.4200 C.3     1  UNL1       -0.0205
      9  C8        -0.5660   -1.1460    0.9030 C.3     1  UNL1       -0.0040
     10  C9         0.1750    0.1340    1.0020 C.ar    1  UNL1        0.0708
     11  N2        -0.1710    1.3130    1.4870 N.ar    1  UNL1       -0.1777
     12  N3         0.8480    2.1340    1.3460 N.ar    1  UNL1       -0.2767
     13  C10        1.9030    1.5310    0.7650 C.ar    1  UNL1        0.0660
     14  C11        3.1700    1.9120    0.3980 C.ar    1  UNL1       -0.0363
     15  C12        3.9980    0.9970   -0.1920 C.ar    1  UNL1       -0.0580
     16  C13        3.6290   -0.3090   -0.4440 C.ar    1  UNL1       -0.0310
     17  C14        4.5050   -1.2700   -1.0660 C.ar    1  UNL1        0.0432
     18  N4         5.7540   -1.0480   -1.4730 N.ar    1  UNL1       -0.2895
     19  N5         6.2210   -2.1690   -1.9910 N.ar    1  UNL1       -0.2180
     20  N6         5.2860   -3.0910   -1.9170 N.ar    1  UNL1       -0.2180
     21  N7         4.2110   -2.5430   -1.3420 N.ar    1  UNL1       -0.2895
     22  C15        2.3510   -0.6620   -0.0640 C.ar    1  UNL1       -0.0491
     23  C16        1.4760    0.2410    0.5400 C.ar    1  UNL1        0.0227
     24 H          -3.3079   -1.8414   -2.0903 H       1  UNL1        0.1423
     25 H          -2.3876   -2.2736   -0.7214 H       1  UNL1        0.1423
     26 H          -4.4894    0.2932   -2.1546 H       1  UNL1        0.0636
     27 H          -5.0622    2.3743   -1.0776 H       1  UNL1        0.0618
     28 H          -4.2142    2.8580    1.1338 H       1  UNL1        0.0618
     29 H          -2.7957    1.2740    2.2676 H       1  UNL1        0.0621
     30 H          -2.3974   -2.0653    1.3161 H       1  UNL1        0.0317
     31 H          -1.9039   -0.7751    2.4400 H       1  UNL1        0.0317
     32 H          -0.6016   -1.4328   -0.1272 H       1  UNL1        0.0332
     33 H          -0.0414   -1.8495    1.5152 H       1  UNL1        0.0332
     34 H           0.8400    3.0763    1.6311 H       1  UNL1        0.1889
     35 H           3.4938    2.8775    0.5653 H       1  UNL1        0.0639
     36 H           4.9472    1.2985   -0.4626 H       1  UNL1        0.0618
     37 H           2.0307   -1.6285   -0.2325 H       1  UNL1        0.0625
@<TRIPOS>UNITY_ATOM_ATTR
21 1
charge -1
@<TRIPOS>BOND
     1     1     2    1
     2     2     3   ar
     3     2     7   ar
     4     3     4   ar
     5     4     5   ar
     6     5     6   ar
     7     6     7   ar
     8     7     8    1
     9     8     9    1
    10     9    10    1
    11    10    11   ar
    12    10    23   ar
    13    11    12   ar
    14    12    13   ar
    15    13    14   ar
    16    13    23   ar
    17    14    15   ar
    18    15    16   ar
    19    16    17    1
    20    16    22   ar
    21    17    18   ar
    22    17    21   ar
    23    18    19   ar
    24    19    20   ar
    25    20    21   ar
    26    22    23   ar
    27     1    24    1
    28     1    25    1
    29     3    26    1
    30     4    27    1
    31     5    28    1
    32     6    29    1
    33     8    30    1
    34     8    31    1
    35     9    32    1
    36     9    33    1
    37    12    34    1
    38    14    35    1
    39    15    36    1
    40    22    37    1
@<TRIPOS>MOLECULE
../data/bude_mols_rdkit_confs_charged/molecule_73.pdb
 37 40 0 0 0
SMALL
GASTEIGER

@<TRIPOS>ATOM
      1  N1         1.3290    0.9040    1.6850 N.pl3   1  UNL1       -0.3577
      2  C1         2.6080    0.6510    1.1400 C.ar    1  UNL1        0.0278
      3  C2         3.7610    1.0840    1.7630 C.ar    1  UNL1       -0.0408
      4  C3         4.9920    0.8300    1.2380 C.ar    1  UNL1       -0.0600
      5  C4         5.0740    0.1200    0.0510 C.ar    1  UNL1       -0.0614
      6  C5         3.9280   -0.3100   -0.5670 C.ar    1  UNL1       -0.0568
      7  C6         2.6730   -0.0570   -0.0420 C.ar    1  UNL1       -0.0264
      8  C7         1.4400   -0.5100   -0.7060 C.3     1  UNL1       -0.0205
      9  C8         0.7650    0.6200   -1.4490 C.3     1  UNL1       -0.0040
     10  C9        -0.4650    0.0430   -2.0670 C.ar    1  UNL1        0.0708
     11  N2        -0.6690   -0.3270   -3.3270 N.ar    1  UNL1       -0.1777
     12  N3        -1.9050   -0.7960   -3.4150 N.ar    1  UNL1       -0.2767
     13  C10       -2.5150   -0.7360   -2.2150 C.ar    1  UNL1        0.0660
     14  C11       -3.7550   -1.0670   -1.7190 C.ar    1  UNL1       -0.0363
     15  C12       -4.0720   -0.8670   -0.3880 C.ar    1  UNL1       -0.0580
     16  C13       -3.1710   -0.3300    0.5060 C.ar    1  UNL1       -0.0310
     17  C14       -3.5370   -0.1250    1.8980 C.ar    1  UNL1        0.0432
     18  N4        -4.7150   -0.4050    2.5010 N.ar    1  UNL1       -0.2895
     19  N5        -4.6500   -0.0630    3.7860 N.ar    1  UNL1       -0.2180
     20  N6        -3.4440    0.4300    4.0070 N.ar    1  UNL1       -0.2180
     21  N7        -2.7710    0.3940    2.8680 N.ar    1  UNL1       -0.2895
     22  C15       -1.9320   -0.0010    0.0050 C.ar    1  UNL1       -0.0491
     23  C16       -1.6240   -0.2030   -1.3200 C.ar    1  UNL1        0.0227
     24 H           1.2435    1.4063    2.5274 H       1  UNL1        0.1423
     25 H           0.5235    0.5780    1.2223 H       1  UNL1        0.1423
     26 H           3.6888    1.6122    2.6466 H       1  UNL1        0.0636
     27 H           5.8460    1.1596    1.7146 H       1  UNL1        0.0618
     28 H           5.9952   -0.0846   -0.3669 H       1  UNL1        0.0618
     29 H           4.0038   -0.8382   -1.4503 H       1  UNL1        0.0621
     30 H           0.7668   -0.8915    0.0331 H       1  UNL1        0.0317
     31 H           1.6988   -1.2701   -1.4132 H       1  UNL1        0.0317
     32 H           1.4147    1.0044   -2.2073 H       1  UNL1        0.0332
     33 H           0.5254    1.4286   -0.7904 H       1  UNL1        0.0332
     34 H          -2.3188   -1.1394   -4.2397 H       1  UNL1        0.1889
     35 H          -4.4619   -1.4722   -2.3524 H       1  UNL1        0.0639
     36 H          -5.0128   -1.1280   -0.0536 H       1  UNL1        0.0618
     37 H          -1.2218    0.4043    0.6346 H       1  UNL1        0.0625
@<TRIPOS>UNITY_ATOM_ATTR
21 1
charge -1
@<TRIPOS>BOND
     1     1     2    1
     2     2     3   ar
     3     2     7   ar
     4     3     4   ar
     5     4     5   ar
     6     5     6   ar
     7     6     7   ar
     8     7     8    1
     9     8     9    1
    10     9    10    1
    11    10    11   ar
    12    10    23   ar
    13    11    12   ar
    14    12    13   ar
    15    13    14   ar
    16    13    23   ar
    17    14    15   ar
    18    15    16   ar
    19    16    17    1
    20    16    22   ar
    21    17    18   ar
    22    17    21   ar
    23    18    19   ar
    24    19    20   ar
    25    20    21   ar
    26    22    23   ar
    27     1    24    1
    28     1    25    1
    29     3    26    1
    30     4    27    1
    31     5    28    1
    32     6    29    1
    33     8    30    1
    34     8    31    1
    35     9    32    1
    36     9    33    1
    37    12    34    1
    38    14    35    1
    39    15    36    1
    40    22    37    1
@<TRIPOS>MOLECULE
../data/bude_mols_rdkit_confs_charged/molecule_73.pdb
 37 40 0 0 0
SMALL
GASTEIGER

@<TRIPOS>ATOM
      1  N1        -4.5850   -1.3870    0.8600 N.pl3   1  UNL1       -0.3577
      2  C1        -4.2780   -0.1270    0.2770 C.ar    1  UNL1        0.0278
      3  C2        -5.3030    0.7340   -0.0580 C.ar    1  UNL1       -0.0408
      4  C3        -5.0750    1.9580   -0.6210 C.ar    1  UNL1       -0.0600
      5  C4        -3.7680    2.3530   -0.8650 C.ar    1  UNL1       -0.0614
      6  C5        -2.7310    1.5210   -0.5430 C.ar    1  UNL1       -0.0568
      7  C6        -2.9860    0.2780    0.0290 C.ar    1  UNL1       -0.0264
      8  C7        -1.8730   -0.6470    0.3890 C.3     1  UNL1       -0.0205
      9  C8        -0.5360   -0.0450    0.0490 C.3     1  UNL1       -0.0040
     10  C9         0.5090   -1.0440    0.4460 C.ar    1  UNL1        0.0708
     11  N2         0.3430   -2.2520    0.9980 N.ar    1  UNL1       -0.1777
     12  N3         1.5090   -2.8400    1.2030 N.ar    1  UNL1       -0.2767
     13  C10        2.4680   -1.9760    0.7650 C.ar    1  UNL1        0.0660
     14  C11        3.8450   -2.0350    0.7220 C.ar    1  UNL1       -0.0363
     15  C12        4.5760   -0.9820    0.2110 C.ar    1  UNL1       -0.0580
     16  C13        3.9800    0.1680   -0.2760 C.ar    1  UNL1       -0.0310
     17  C14        4.7920    1.2570   -0.8080 C.ar    1  UNL1        0.0432
     18  N4         6.1300    1.3150   -0.9020 N.ar    1  UNL1       -0.2895
     19  N5         6.5110    2.4620   -1.4380 N.ar    1  UNL1       -0.2180
     20  N6         5.3990    3.1330   -1.6830 N.ar    1  UNL1       -0.2180
     21  N7         4.3330    2.4110   -1.3040 N.ar    1  UNL1       -0.2895
     22  C15        2.6030    0.2210   -0.2300 C.ar    1  UNL1       -0.0491
     23  C16        1.8700   -0.8300    0.2800 C.ar    1  UNL1        0.0227
     24 H          -5.5228   -1.6394    1.0213 H       1  UNL1        0.1423
     25 H          -3.8597   -2.0071    1.1024 H       1  UNL1        0.1423
     26 H          -6.2765    0.4431    0.1231 H       1  UNL1        0.0636
     27 H          -5.8634    2.5792   -0.8610 H       1  UNL1        0.0618
     28 H          -3.5779    3.2743   -1.2894 H       1  UNL1        0.0618
     29 H          -1.7586    1.8153   -0.7244 H       1  UNL1        0.0621
     30 H          -1.9913   -1.5629   -0.1513 H       1  UNL1        0.0317
     31 H          -1.9070   -0.8251    1.4435 H       1  UNL1        0.0317
     32 H          -0.3959    0.8677    0.5896 H       1  UNL1        0.0332
     33 H          -0.4728    0.1787   -0.9954 H       1  UNL1        0.0332
     34 H           1.6564   -3.7304    1.5963 H       1  UNL1        0.1889
     35 H           4.3327   -2.8733    1.0748 H       1  UNL1        0.0639
     36 H           5.6052   -1.0549    0.1913 H       1  UNL1        0.0618
     37 H           2.1140    1.0588   -0.5821 H       1  UNL1        0.0625
@<TRIPOS>UNITY_ATOM_ATTR
21 1
charge -1
@<TRIPOS>BOND
     1     1     2    1
     2     2     3   ar
     3     2     7   ar
     4     3     4   ar
     5     4     5   ar
     6     5     6   ar
     7     6     7   ar
     8     7     8    1
     9     8     9    1
    10     9    10    1
    11    10    11   ar
    12    10    23   ar
    13    11    12   ar
    14    12    13   ar
    15    13    14   ar
    16    13    23   ar
    17    14    15   ar
    18    15    16   ar
    19    16    17    1
    20    16    22   ar
    21    17    18   ar
    22    17    21   ar
    23    18    19   ar
    24    19    20   ar
    25    20    21   ar
    26    22    23   ar
    27     1    24    1
    28     1    25    1
    29     3    26    1
    30     4    27    1
    31     5    28    1
    32     6    29    1
    33     8    30    1
    34     8    31    1
    35     9    32    1
    36     9    33    1
    37    12    34    1
    38    14    35    1
    39    15    36    1
    40    22    37    1
