@<TRIPOS>MOLECULE
../data/bude_mols_rdkit_confs_charged/molecule_41.pdb
 30 31 0 0 0
SMALL
GASTEIGER

@<TRIPOS>ATOM
      1 C           4.6610   -1.5440    0.8190 C.3     1  UNL1       -0.0397
      2 C           3.4590   -0.8130    0.3450 C.ar    1  UNL1       -0.0504
      3 C           2.3490   -0.7180    1.1540 C.ar    1  UNL1       -0.0582
      4 C           1.2020   -0.0400    0.7430 C.ar    1  UNL1       -0.0507
      5 C           1.1200    0.5680   -0.4870 C.ar    1  UNL1        0.0223
      6 C          -0.0630    1.2700   -0.9690 C.2     1  UNL1        0.1935
      7 O           0.0020    2.1800   -1.8380 O.2     1  UNL1       -0.2866
      8 C          -1.3730    0.9370   -0.4550 C.ar    1  UNL1        0.0321
      9 C          -2.3610    1.9170   -0.3680 C.ar    1  UNL1       -0.0095
     10 C          -3.6080    1.5880    0.0980 C.ar    1  UNL1        0.1163
     11 O          -4.6120    2.5710    0.1900 O.3     1  UNL1       -0.5071
     12 C          -3.8810    0.2900    0.4770 C.ar    1  UNL1        0.0141
     13 O          -5.1710   -0.0090    0.9500 O.co2   1  UNL1       -0.8670
     14 C          -2.8940   -0.6650    0.3840 C.ar    1  UNL1        0.2697
     15 N          -3.1570   -2.0050    0.7700 N.pl3   1  UNL1        0.0791
     16 O          -4.3080   -2.4420    0.6140 O.2     1  UNL1        0.0414
     17 O          -2.1330   -2.7540    1.2940 O.co2   1  UNL1       -0.5761
     18 C          -1.6230   -0.3690   -0.0820 C.ar    1  UNL1        0.0260
     19 C           2.2610    0.4620   -1.2970 C.ar    1  UNL1       -0.0507
     20 C           3.3940   -0.2070   -0.8920 C.ar    1  UNL1       -0.0582
     21 H           4.4809   -1.9272    1.8017 H       1  UNL1        0.0278
     22 H           5.4973   -0.8770    0.8440 H       1  UNL1        0.0278
     23 H           4.8711   -2.3547    0.1530 H       1  UNL1        0.0278
     24 H           2.3663   -1.1591    2.0868 H       1  UNL1        0.0620
     25 H           0.3917    0.0066    1.3804 H       1  UNL1        0.0625
     26 H          -2.1544    2.8870   -0.6534 H       1  UNL1        0.0661
     27 H          -4.4288    3.4533   -0.0669 H       1  UNL1        0.2921
     28 H          -0.8927   -1.0952   -0.1477 H       1  UNL1        0.0692
     29 H           2.2504    0.9017   -2.2306 H       1  UNL1        0.0625
     30 H           4.2080   -0.2558   -1.5245 H       1  UNL1        0.0620
@<TRIPOS>UNITY_ATOM_ATTR
13 1
charge -1
15 1
charge 1
17 1
charge -1
@<TRIPOS>BOND
     1     1     2    1
     2     2     3   ar
     3     2    20   ar
     4     3     4   ar
     5     4     5   ar
     6     5     6    1
     7     5    19   ar
     8     6     7    2
     9     6     8    1
    10     8     9   ar
    11     8    18   ar
    12     9    10   ar
    13    10    11    1
    14    10    12   ar
    15    12    13    1
    16    12    14   ar
    17    14    15    1
    18    14    18   ar
    19    15    16    2
    20    15    17    1
    21    19    20   ar
    22     1    21    1
    23     1    22    1
    24     1    23    1
    25     3    24    1
    26     4    25    1
    27     9    26    1
    28    11    27    1
    29    18    28    1
    30    19    29    1
    31    20    30    1
@<TRIPOS>MOLECULE
../data/bude_mols_rdkit_confs_charged/molecule_41.pdb
 30 31 0 0 0
SMALL
GASTEIGER

@<TRIPOS>ATOM
      1 C           5.2540    1.0600   -0.0990 C.3     1  UNL1       -0.0397
      2 C           3.8490    0.5610    0.0740 C.ar    1  UNL1       -0.0504
      3 C           2.8170    1.4050    0.3830 C.ar    1  UNL1       -0.0582
      4 C           1.4960    0.9370    0.5440 C.ar    1  UNL1       -0.0507
      5 C           1.1840   -0.3690    0.4020 C.ar    1  UNL1        0.0223
      6 C          -0.1070   -0.9710    0.5050 C.2     1  UNL1        0.1935
      7 O          -0.1120   -2.2580    0.8510 O.2     1  UNL1       -0.2866
      8 C          -1.4460   -0.4910    0.3050 C.ar    1  UNL1        0.0321
      9 C          -1.8850    0.7900    0.4750 C.ar    1  UNL1       -0.0095
     10 C          -3.2120    1.1930    0.2100 C.ar    1  UNL1        0.1163
     11 O          -3.6370    2.4950    0.3880 O.3     1  UNL1       -0.5071
     12 C          -4.1000    0.2430   -0.2390 C.ar    1  UNL1        0.0141
     13 O          -5.4220    0.5840   -0.5160 O.co2   1  UNL1       -0.8670
     14 C          -3.7170   -1.0740   -0.4310 C.ar    1  UNL1        0.2697
     15 N          -4.6800   -2.0100   -0.8960 N.pl3   1  UNL1        0.0791
     16 O          -5.6140   -1.7470   -1.6450 O.2     1  UNL1        0.0414
     17 O          -4.5430   -3.3200   -0.4660 O.co2   1  UNL1       -0.5761
     18 C          -2.4260   -1.3890   -0.1570 C.ar    1  UNL1        0.0260
     19 C           2.2690   -1.2150    0.0850 C.ar    1  UNL1       -0.0507
     20 C           3.5480   -0.7700   -0.0730 C.ar    1  UNL1       -0.0582
     21 H           5.2782    2.1185    0.0559 H       1  UNL1        0.0278
     22 H           5.5925    0.8366   -1.0892 H       1  UNL1        0.0278
     23 H           5.8929    0.5807    0.6130 H       1  UNL1        0.0278
     24 H           3.0105    2.4117    0.5015 H       1  UNL1        0.0620
     25 H           0.7489    1.6100    0.7763 H       1  UNL1        0.0625
     26 H          -1.2149    1.4981    0.8135 H       1  UNL1        0.0661
     27 H          -3.0366    3.1462    0.6936 H       1  UNL1        0.2921
     28 H          -2.1385   -2.3699   -0.2994 H       1  UNL1        0.0692
     29 H           2.0842   -2.2234   -0.0334 H       1  UNL1        0.0625
     30 H           4.2972   -1.4406   -0.3054 H       1  UNL1        0.0620
@<TRIPOS>UNITY_ATOM_ATTR
13 1
charge -1
15 1
charge 1
17 1
charge -1
@<TRIPOS>BOND
     1     1     2    1
     2     2     3   ar
     3     2    20   ar
     4     3     4   ar
     5     4     5   ar
     6     5     6    1
     7     5    19   ar
     8     6     7    2
     9     6     8    1
    10     8     9   ar
    11     8    18   ar
    12     9    10   ar
    13    10    11    1
    14    10    12   ar
    15    12    13    1
    16    12    14   ar
    17    14    15    1
    18    14    18   ar
    19    15    16    2
    20    15    17    1
    21    19    20   ar
    22     1    21    1
    23     1    22    1
    24     1    23    1
    25     3    24    1
    26     4    25    1
    27     9    26    1
    28    11    27    1
    29    18    28    1
    30    19    29    1
    31    20    30    1
@<TRIPOS>MOLECULE
../data/bude_mols_rdkit_confs_charged/molecule_41.pdb
 30 31 0 0 0
SMALL
GASTEIGER

@<TRIPOS>ATOM
      1 C          -4.9590   -0.8010    0.8430 C.3     1  UNL1       -0.0397
      2 C          -3.5980   -0.2330    0.7000 C.ar    1  UNL1       -0.0504
      3 C          -3.4710    1.0500    0.2180 C.ar    1  UNL1       -0.0582
      4 C          -2.2110    1.6120    0.0720 C.ar    1  UNL1       -0.0507
      5 C          -1.0590    0.9030    0.4050 C.ar    1  UNL1        0.0223
      6 C           0.2530    1.4960    0.2790 C.2     1  UNL1        0.1935
      7 O           0.3810    2.7290    0.4150 O.2     1  UNL1       -0.2866
      8 C           1.4240    0.6820   -0.0010 C.ar    1  UNL1        0.0321
      9 C           1.3600   -0.5310   -0.6470 C.ar    1  UNL1       -0.0095
     10 C           2.4620   -1.3230   -0.8920 C.ar    1  UNL1        0.1163
     11 O           2.3280   -2.5610   -1.5580 O.3     1  UNL1       -0.5071
     12 C           3.6880   -0.8760   -0.4690 C.ar    1  UNL1        0.0141
     13 O           4.8230   -1.6650   -0.7070 O.co2   1  UNL1       -0.8670
     14 C           3.8300    0.3420    0.1910 C.ar    1  UNL1        0.2697
     15 N           5.1030    0.7960    0.6260 N.pl3   1  UNL1        0.0791
     16 O           5.2100    1.5560    1.6010 O.2     1  UNL1        0.0414
     17 O           6.2440    0.4090   -0.0160 O.co2   1  UNL1       -0.5761
     18 C           2.6990    1.0940    0.4110 C.ar    1  UNL1        0.0260
     19 C          -1.2240   -0.3820    0.8870 C.ar    1  UNL1       -0.0507
     20 C          -2.4750   -0.9510    1.0360 C.ar    1  UNL1       -0.0582
     21 H          -5.6821   -0.0783    0.5271 H       1  UNL1        0.0278
     22 H          -5.1334   -1.0556    1.8675 H       1  UNL1        0.0278
     23 H          -5.0444   -1.6792    0.2377 H       1  UNL1        0.0278
     24 H          -4.3116    1.5930   -0.0343 H       1  UNL1        0.0620
     25 H          -2.1254    2.5744   -0.2905 H       1  UNL1        0.0625
     26 H           0.4374   -0.8663   -0.9654 H       1  UNL1        0.0661
     27 H           1.4833   -2.8520   -1.8406 H       1  UNL1        0.2921
     28 H           2.7932    1.9983    0.8993 H       1  UNL1        0.0692
     29 H          -0.3893   -0.9323    1.1429 H       1  UNL1        0.0625
     30 H          -2.5656   -1.9129    1.3988 H       1  UNL1        0.0620
@<TRIPOS>UNITY_ATOM_ATTR
13 1
charge -1
15 1
charge 1
17 1
charge -1
@<TRIPOS>BOND
     1     1     2    1
     2     2     3   ar
     3     2    20   ar
     4     3     4   ar
     5     4     5   ar
     6     5     6    1
     7     5    19   ar
     8     6     7    2
     9     6     8    1
    10     8     9   ar
    11     8    18   ar
    12     9    10   ar
    13    10    11    1
    14    10    12   ar
    15    12    13    1
    16    12    14   ar
    17    14    15    1
    18    14    18   ar
    19    15    16    2
    20    15    17    1
    21    19    20   ar
    22     1    21    1
    23     1    22    1
    24     1    23    1
    25     3    24    1
    26     4    25    1
    27     9    26    1
    28    11    27    1
    29    18    28    1
    30    19    29    1
    31    20    30    1
@<TRIPOS>MOLECULE
../data/bude_mols_rdkit_confs_charged/molecule_41.pdb
 30 31 0 0 0
SMALL
GASTEIGER

@<TRIPOS>ATOM
      1 C          -4.8550    1.4080   -0.0860 C.3     1  UNL1       -0.0397
      2 C          -3.5300    0.8290    0.2880 C.ar    1  UNL1       -0.0504
      3 C          -2.6270    0.4970   -0.7120 C.ar    1  UNL1       -0.0582
      4 C          -1.4010   -0.0390   -0.3670 C.ar    1  UNL1       -0.0507
      5 C          -1.0120   -0.2700    0.9330 C.ar    1  UNL1        0.0223
      6 C           0.2880   -0.8140    1.2870 C.2     1  UNL1        0.1935
      7 O           0.3370   -1.4140    2.4230 O.2     1  UNL1       -0.2866
      8 C           1.4860   -0.7280    0.4790 C.ar    1  UNL1        0.0321
      9 C           2.4390   -1.7220    0.5700 C.ar    1  UNL1       -0.0095
     10 C           3.6180   -1.6730   -0.1830 C.ar    1  UNL1        0.1163
     11 O           4.5520   -2.7080   -0.0550 O.3     1  UNL1       -0.5071
     12 C           3.8440   -0.6290   -1.0280 C.ar    1  UNL1        0.0141
     13 O           5.0160   -0.5830   -1.7760 O.co2   1  UNL1       -0.8670
     14 C           2.8940    0.3650   -1.1180 C.ar    1  UNL1        0.2697
     15 N           3.0730    1.4830   -1.9800 N.pl3   1  UNL1        0.0791
     16 O           3.7100    1.3180   -3.0360 O.2     1  UNL1        0.0414
     17 O           2.5490    2.7100   -1.6460 O.co2   1  UNL1       -0.5761
     18 C           1.7160    0.3270   -0.3740 C.ar    1  UNL1        0.0260
     19 C          -1.9290    0.0690    1.9130 C.ar    1  UNL1       -0.0507
     20 C          -3.1620    0.6080    1.5920 C.ar    1  UNL1       -0.0582
     21 H          -4.9209    1.4893   -1.1509 H       1  UNL1        0.0278
     22 H          -4.9568    2.3786    0.3528 H       1  UNL1        0.0278
     23 H          -5.6365    0.7709    0.2722 H       1  UNL1        0.0278
     24 H          -2.8687    0.6489   -1.7037 H       1  UNL1        0.0620
     25 H          -0.7421   -0.2788   -1.1242 H       1  UNL1        0.0625
     26 H           2.2791   -2.5183    1.2067 H       1  UNL1        0.0661
     27 H           4.3844   -3.4206    0.5299 H       1  UNL1        0.2921
     28 H           1.0211    1.0848   -0.4622 H       1  UNL1        0.0692
     29 H          -1.6876   -0.0837    2.9047 H       1  UNL1        0.0625
     30 H          -3.8198    0.8493    2.3497 H       1  UNL1        0.0620
@<TRIPOS>UNITY_ATOM_ATTR
13 1
charge -1
15 1
charge 1
17 1
charge -1
@<TRIPOS>BOND
     1     1     2    1
     2     2     3   ar
     3     2    20   ar
     4     3     4   ar
     5     4     5   ar
     6     5     6    1
     7     5    19   ar
     8     6     7    2
     9     6     8    1
    10     8     9   ar
    11     8    18   ar
    12     9    10   ar
    13    10    11    1
    14    10    12   ar
    15    12    13    1
    16    12    14   ar
    17    14    15    1
    18    14    18   ar
    19    15    16    2
    20    15    17    1
    21    19    20   ar
    22     1    21    1
    23     1    22    1
    24     1    23    1
    25     3    24    1
    26     4    25    1
    27     9    26    1
    28    11    27    1
    29    18    28    1
    30    19    29    1
    31    20    30    1
@<TRIPOS>MOLECULE
../data/bude_mols_rdkit_confs_charged/molecule_41.pdb
 30 31 0 0 0
SMALL
GASTEIGER

@<TRIPOS>ATOM
      1 C          -5.2370    0.5300   -0.3960 C.3     1  UNL1       -0.0397
      2 C          -3.8130    0.2050   -0.0910 C.ar    1  UNL1       -0.0504
      3 C          -3.4470   -1.1230    0.0020 C.ar    1  UNL1       -0.0582
      4 C          -2.1450   -1.4470    0.2810 C.ar    1  UNL1       -0.0507
      5 C          -1.1310   -0.4840    0.4840 C.ar    1  UNL1        0.0223
      6 C           0.1650   -0.9940    0.7830 C.2     1  UNL1        0.1935
      7 O           0.1450   -2.1330    1.4670 O.2     1  UNL1       -0.2866
      8 C           1.4930   -0.5090    0.4730 C.ar    1  UNL1        0.0321
      9 C           2.5040   -1.4790    0.2870 C.ar    1  UNL1       -0.0095
     10 C           3.8030   -1.1360    0.0050 C.ar    1  UNL1        0.1163
     11 O           4.7800   -2.1150   -0.1740 O.3     1  UNL1       -0.5071
     12 C           4.2050    0.1750   -0.1140 C.ar    1  UNL1        0.0141
     13 O           5.5050    0.5620   -0.3980 O.co2   1  UNL1       -0.8670
     14 C           3.2460    1.1390    0.0620 C.ar    1  UNL1        0.2697
     15 N           3.6020    2.5140   -0.0490 N.pl3   1  UNL1        0.0791
     16 O           2.7230    3.3420   -0.4040 O.2     1  UNL1        0.0414
     17 O           4.9010    2.9230    0.2310 O.co2   1  UNL1       -0.5761
     18 C           1.9110    0.7790    0.3510 C.ar    1  UNL1        0.0260
     19 C          -1.5580    0.8050    0.3800 C.ar    1  UNL1       -0.0507
     20 C          -2.8710    1.1850    0.0980 C.ar    1  UNL1       -0.0582
     21 H          -5.7945   -0.3768   -0.5044 H       1  UNL1        0.0278
     22 H          -5.2879    1.0908   -1.3058 H       1  UNL1        0.0278
     23 H          -5.6498    1.1091    0.4035 H       1  UNL1        0.0278
     24 H          -4.1490   -1.8665   -0.1376 H       1  UNL1        0.0620
     25 H          -1.8921   -2.4454    0.3462 H       1  UNL1        0.0625
     26 H           2.2576   -2.4780    0.3658 H       1  UNL1        0.0661
     27 H           4.5536   -3.0214   -0.1025 H       1  UNL1        0.2921
     28 H           1.2171    1.5326    0.4760 H       1  UNL1        0.0692
     29 H          -0.8615    1.5537    0.5196 H       1  UNL1        0.0625
     30 H          -3.1282    2.1823    0.0329 H       1  UNL1        0.0620
@<TRIPOS>UNITY_ATOM_ATTR
13 1
charge -1
15 1
charge 1
17 1
charge -1
@<TRIPOS>BOND
     1     1     2    1
     2     2     3   ar
     3     2    20   ar
     4     3     4   ar
     5     4     5   ar
     6     5     6    1
     7     5    19   ar
     8     6     7    2
     9     6     8    1
    10     8     9   ar
    11     8    18   ar
    12     9    10   ar
    13    10    11    1
    14    10    12   ar
    15    12    13    1
    16    12    14   ar
    17    14    15    1
    18    14    18   ar
    19    15    16    2
    20    15    17    1
    21    19    20   ar
    22     1    21    1
    23     1    22    1
    24     1    23    1
    25     3    24    1
    26     4    25    1
    27     9    26    1
    28    11    27    1
    29    18    28    1
    30    19    29    1
    31    20    30    1
@<TRIPOS>MOLECULE
../data/bude_mols_rdkit_confs_charged/molecule_41.pdb
 30 31 0 0 0
SMALL
GASTEIGER

@<TRIPOS>ATOM
      1 C           4.9020    0.0530    1.0870 C.3     1  UNL1       -0.0397
      2 C           3.5600   -0.2010    0.4900 C.ar    1  UNL1       -0.0504
      3 C           2.5560    0.7530    0.4320 C.ar    1  UNL1       -0.0582
      4 C           1.3490    0.4270   -0.1400 C.ar    1  UNL1       -0.0507
      5 C           1.0650   -0.8160   -0.6700 C.ar    1  UNL1        0.0223
      6 C          -0.2200   -1.1600   -1.2650 C.2     1  UNL1        0.1935
      7 O          -0.2960   -2.0680   -2.1480 O.2     1  UNL1       -0.2866
      8 C          -1.4620   -0.5010   -0.8970 C.ar    1  UNL1        0.0321
      9 C          -2.5040   -0.2960   -1.7760 C.ar    1  UNL1       -0.0095
     10 C          -3.6820    0.2970   -1.3790 C.ar    1  UNL1        0.1163
     11 O          -4.7260    0.4910   -2.3040 O.3     1  UNL1       -0.5071
     12 C          -3.8030    0.6920   -0.0570 C.ar    1  UNL1        0.0141
     13 O          -4.9870    1.2940    0.3490 O.co2   1  UNL1       -0.8670
     14 C          -2.7920    0.5100    0.8660 C.ar    1  UNL1        0.2697
     15 N          -2.9180    0.8930    2.2150 N.pl3   1  UNL1        0.0791
     16 O          -2.2700    0.2670    3.0720 O.2     1  UNL1        0.0414
     17 O          -3.7260    1.9210    2.6130 O.co2   1  UNL1       -0.5761
     18 C          -1.6280   -0.0870    0.4310 C.ar    1  UNL1        0.0260
     19 C           2.0920   -1.7610   -0.5990 C.ar    1  UNL1       -0.0507
     20 C           3.3060   -1.4500   -0.0300 C.ar    1  UNL1       -0.0582
     21 H           4.9480    1.0600    1.4458 H       1  UNL1        0.0278
     22 H           5.6570   -0.0955    0.3435 H       1  UNL1        0.0278
     23 H           5.0644   -0.6231    1.9003 H       1  UNL1        0.0278
     24 H           2.7130    1.6986    0.8144 H       1  UNL1        0.0620
     25 H           0.6147    1.1513   -0.1752 H       1  UNL1        0.0625
     26 H          -2.3985   -0.5950   -2.7581 H       1  UNL1        0.0661
     27 H          -4.6211    0.2155   -3.1934 H       1  UNL1        0.2921
     28 H          -0.8577   -0.2329    1.1021 H       1  UNL1        0.0692
     29 H           1.9376   -2.7078   -0.9795 H       1  UNL1        0.0625
     30 H           4.0437   -2.1706    0.0077 H       1  UNL1        0.0620
@<TRIPOS>UNITY_ATOM_ATTR
13 1
charge -1
15 1
charge 1
17 1
charge -1
@<TRIPOS>BOND
     1     1     2    1
     2     2     3   ar
     3     2    20   ar
     4     3     4   ar
     5     4     5   ar
     6     5     6    1
     7     5    19   ar
     8     6     7    2
     9     6     8    1
    10     8     9   ar
    11     8    18   ar
    12     9    10   ar
    13    10    11    1
    14    10    12   ar
    15    12    13    1
    16    12    14   ar
    17    14    15    1
    18    14    18   ar
    19    15    16    2
    20    15    17    1
    21    19    20   ar
    22     1    21    1
    23     1    22    1
    24     1    23    1
    25     3    24    1
    26     4    25    1
    27     9    26    1
    28    11    27    1
    29    18    28    1
    30    19    29    1
    31    20    30    1
@<TRIPOS>MOLECULE
../data/bude_mols_rdkit_confs_charged/molecule_41.pdb
 30 31 0 0 0
SMALL
GASTEIGER

@<TRIPOS>ATOM
      1 C          -4.7330   -0.5920   -1.8370 C.3     1  UNL1       -0.0397
      2 C          -3.5040   -0.1660   -1.0690 C.ar    1  UNL1       -0.0504
      3 C          -2.4400   -1.0220   -0.9200 C.ar    1  UNL1       -0.0582
      4 C          -1.2990   -0.6270   -0.2060 C.ar    1  UNL1       -0.0507
      5 C          -1.2100    0.6180    0.3640 C.ar    1  UNL1        0.0223
      6 C          -0.0430    1.0580    1.0910 C.2     1  UNL1        0.1935
      7 O          -0.1610    2.0050    1.9560 O.2     1  UNL1       -0.2866
      8 C           1.3090    0.5340    0.9520 C.ar    1  UNL1        0.0321
      9 C           2.1950    0.5530    2.0250 C.ar    1  UNL1       -0.0095
     10 C           3.4820    0.0660    1.8820 C.ar    1  UNL1        0.1163
     11 O           4.3550    0.0980    2.9810 O.3     1  UNL1       -0.5071
     12 C           3.9570   -0.4520    0.7090 C.ar    1  UNL1        0.0141
     13 O           5.2730   -0.9260    0.6440 O.co2   1  UNL1       -0.8670
     14 C           3.0990   -0.4830   -0.3730 C.ar    1  UNL1        0.2697
     15 N           3.5880   -1.0220   -1.5890 N.pl3   1  UNL1        0.0791
     16 O           4.8050   -0.8680   -1.8340 O.2     1  UNL1        0.0414
     17 O           2.8040   -1.6910   -2.4980 O.co2   1  UNL1       -0.5761
     18 C           1.7970    0.0090   -0.2280 C.ar    1  UNL1        0.0260
     19 C          -2.2840    1.4770    0.2120 C.ar    1  UNL1       -0.0507
     20 C          -3.4230    1.0820   -0.5010 C.ar    1  UNL1       -0.0582
     21 H          -4.6001   -1.5908   -2.1971 H       1  UNL1        0.0278
     22 H          -4.8829    0.0687   -2.6652 H       1  UNL1        0.0278
     23 H          -5.5865   -0.5557   -1.1928 H       1  UNL1        0.0278
     24 H          -2.4805   -1.9649   -1.3374 H       1  UNL1        0.0620
     25 H          -0.5108   -1.2859   -0.1074 H       1  UNL1        0.0625
     26 H           1.8896    0.9333    2.9345 H       1  UNL1        0.0661
     27 H           4.0637    0.4460    3.8007 H       1  UNL1        0.2921
     28 H           1.1686   -0.0222   -1.0460 H       1  UNL1        0.0692
     29 H          -2.2453    2.4202    0.6290 H       1  UNL1        0.0625
     30 H          -4.2131    1.7383   -0.6011 H       1  UNL1        0.0620
@<TRIPOS>UNITY_ATOM_ATTR
13 1
charge -1
15 1
charge 1
17 1
charge -1
@<TRIPOS>BOND
     1     1     2    1
     2     2     3   ar
     3     2    20   ar
     4     3     4   ar
     5     4     5   ar
     6     5     6    1
     7     5    19   ar
     8     6     7    2
     9     6     8    1
    10     8     9   ar
    11     8    18   ar
    12     9    10   ar
    13    10    11    1
    14    10    12   ar
    15    12    13    1
    16    12    14   ar
    17    14    15    1
    18    14    18   ar
    19    15    16    2
    20    15    17    1
    21    19    20   ar
    22     1    21    1
    23     1    22    1
    24     1    23    1
    25     3    24    1
    26     4    25    1
    27     9    26    1
    28    11    27    1
    29    18    28    1
    30    19    29    1
    31    20    30    1
@<TRIPOS>MOLECULE
../data/bude_mols_rdkit_confs_charged/molecule_41.pdb
 30 31 0 0 0
SMALL
GASTEIGER

@<TRIPOS>ATOM
      1 C          -5.0110   -1.1530   -0.3540 C.3     1  UNL1       -0.0397
      2 C          -3.6780   -0.5170   -0.1650 C.ar    1  UNL1       -0.0504
      3 C          -2.5630   -1.0080   -0.8200 C.ar    1  UNL1       -0.0582
      4 C          -1.3150   -0.3940   -0.6550 C.ar    1  UNL1       -0.0507
      5 C          -1.1310    0.7100    0.1510 C.ar    1  UNL1        0.0223
      6 C           0.1250    1.3970    0.3610 C.2     1  UNL1        0.1935
      7 O           0.0640    2.6060    0.7190 O.2     1  UNL1       -0.2866
      8 C           1.4450    0.8230    0.1940 C.ar    1  UNL1        0.0321
      9 C           2.4870    1.6450   -0.2230 C.ar    1  UNL1       -0.0095
     10 C           3.7770    1.2090   -0.3850 C.ar    1  UNL1        0.1163
     11 O           4.7780    2.0710   -0.8070 O.3     1  UNL1       -0.5071
     12 C           4.0500   -0.1020   -0.1210 C.ar    1  UNL1        0.0141
     13 O           5.3720   -0.5160   -0.2930 O.co2   1  UNL1       -0.8670
     14 C           3.0460   -0.9450    0.2940 C.ar    1  UNL1        0.2697
     15 N           3.3240   -2.3130    0.5980 N.pl3   1  UNL1        0.0791
     16 O           2.4410   -3.1820    0.5390 O.2     1  UNL1        0.0414
     17 O           4.6280   -2.6070    0.9820 O.co2   1  UNL1       -0.5761
     18 C           1.7440   -0.4880    0.4520 C.ar    1  UNL1        0.0260
     19 C          -2.2790    1.1830    0.8000 C.ar    1  UNL1       -0.0507
     20 C          -3.5050    0.5860    0.6430 C.ar    1  UNL1       -0.0582
     21 H          -4.9170   -1.9881   -1.0163 H       1  UNL1        0.0278
     22 H          -5.6901   -0.4402   -0.7730 H       1  UNL1        0.0278
     23 H          -5.3837   -1.4877    0.5915 H       1  UNL1        0.0278
     24 H          -2.6513   -1.8324   -1.4345 H       1  UNL1        0.0620
     25 H          -0.5011   -0.7830   -1.1562 H       1  UNL1        0.0625
     26 H           2.2780    2.6360   -0.4210 H       1  UNL1        0.0661
     27 H           4.5786    2.9690   -0.9852 H       1  UNL1        0.2921
     28 H           1.0032   -1.1355    0.7633 H       1  UNL1        0.0692
     29 H          -2.2003    2.0071    1.4162 H       1  UNL1        0.0625
     30 H          -4.3197    0.9738    1.1438 H       1  UNL1        0.0620
@<TRIPOS>UNITY_ATOM_ATTR
13 1
charge -1
15 1
charge 1
17 1
charge -1
@<TRIPOS>BOND
     1     1     2    1
     2     2     3   ar
     3     2    20   ar
     4     3     4   ar
     5     4     5   ar
     6     5     6    1
     7     5    19   ar
     8     6     7    2
     9     6     8    1
    10     8     9   ar
    11     8    18   ar
    12     9    10   ar
    13    10    11    1
    14    10    12   ar
    15    12    13    1
    16    12    14   ar
    17    14    15    1
    18    14    18   ar
    19    15    16    2
    20    15    17    1
    21    19    20   ar
    22     1    21    1
    23     1    22    1
    24     1    23    1
    25     3    24    1
    26     4    25    1
    27     9    26    1
    28    11    27    1
    29    18    28    1
    30    19    29    1
    31    20    30    1
@<TRIPOS>MOLECULE
../data/bude_mols_rdkit_confs_charged/molecule_41.pdb
 30 31 0 0 0
SMALL
GASTEIGER

@<TRIPOS>ATOM
      1 C           5.0160    1.1960    0.0070 C.3     1  UNL1       -0.0397
      2 C           3.6650    0.5470   -0.0670 C.ar    1  UNL1       -0.0504
      3 C           2.5790    1.0680    0.5910 C.ar    1  UNL1       -0.0582
      4 C           1.3400    0.4180    0.4840 C.ar    1  UNL1       -0.0507
      5 C           1.1770   -0.7200   -0.2550 C.ar    1  UNL1        0.0223
      6 C          -0.1150   -1.3670   -0.3780 C.2     1  UNL1        0.1935
      7 O          -0.0950   -2.6350   -0.6210 O.2     1  UNL1       -0.2866
      8 C          -1.4090   -0.7320   -0.2560 C.ar    1  UNL1        0.0321
      9 C          -1.5570    0.6050   -0.5170 C.ar    1  UNL1       -0.0095
     10 C          -2.7810    1.2470   -0.3990 C.ar    1  UNL1        0.1163
     11 O          -2.9170    2.5950   -0.6620 O.3     1  UNL1       -0.5071
     12 C          -3.8760    0.5010   -0.0060 C.ar    1  UNL1        0.0141
     13 O          -5.1430    1.0910    0.1310 O.co2   1  UNL1       -0.8670
     14 C          -3.7870   -0.8460    0.2680 C.ar    1  UNL1        0.2697
     15 N          -4.9220   -1.5940    0.6670 N.pl3   1  UNL1        0.0791
     16 O          -4.9480   -2.8090    0.4090 O.2     1  UNL1        0.0414
     17 O          -5.9510   -0.9650    1.3180 O.co2   1  UNL1       -0.5761
     18 C          -2.5310   -1.4430    0.1340 C.ar    1  UNL1        0.0260
     19 C           2.2960   -1.2210   -0.9080 C.ar    1  UNL1       -0.0507
     20 C           3.5260   -0.6120   -0.8260 C.ar    1  UNL1       -0.0582
     21 H           4.9591    2.0689    0.6232 H       1  UNL1        0.0278
     22 H           5.3326    1.4738   -0.9766 H       1  UNL1        0.0278
     23 H           5.7196    0.5081    0.4272 H       1  UNL1        0.0278
     24 H           2.6724    1.9261    1.1567 H       1  UNL1        0.0620
     25 H           0.5251    0.8122    0.9796 H       1  UNL1        0.0625
     26 H          -0.7322    1.1514   -0.8105 H       1  UNL1        0.0661
     27 H          -2.1725    3.0978   -0.9283 H       1  UNL1        0.2921
     28 H          -2.4361   -2.4512    0.3331 H       1  UNL1        0.0692
     29 H           2.2010   -2.0790   -1.4736 H       1  UNL1        0.0625
     30 H           4.3385   -1.0102   -1.3223 H       1  UNL1        0.0620
@<TRIPOS>UNITY_ATOM_ATTR
13 1
charge -1
15 1
charge 1
17 1
charge -1
@<TRIPOS>BOND
     1     1     2    1
     2     2     3   ar
     3     2    20   ar
     4     3     4   ar
     5     4     5   ar
     6     5     6    1
     7     5    19   ar
     8     6     7    2
     9     6     8    1
    10     8     9   ar
    11     8    18   ar
    12     9    10   ar
    13    10    11    1
    14    10    12   ar
    15    12    13    1
    16    12    14   ar
    17    14    15    1
    18    14    18   ar
    19    15    16    2
    20    15    17    1
    21    19    20   ar
    22     1    21    1
    23     1    22    1
    24     1    23    1
    25     3    24    1
    26     4    25    1
    27     9    26    1
    28    11    27    1
    29    18    28    1
    30    19    29    1
    31    20    30    1
@<TRIPOS>MOLECULE
../data/bude_mols_rdkit_confs_charged/molecule_41.pdb
 30 31 0 0 0
SMALL
GASTEIGER

@<TRIPOS>ATOM
      1 C          -4.7310   -0.3490    1.2080 C.3     1  UNL1       -0.0397
      2 C          -3.4680   -0.2630    0.4290 C.ar    1  UNL1       -0.0504
      3 C          -3.3030   -0.8330   -0.8130 C.ar    1  UNL1       -0.0582
      4 C          -2.1190   -0.7320   -1.5040 C.ar    1  UNL1       -0.0507
      5 C          -1.0320   -0.0540   -0.9870 C.ar    1  UNL1        0.0223
      6 C           0.2210    0.0740   -1.7180 C.2     1  UNL1        0.1935
      7 O           0.2860    0.0890   -2.9730 O.2     1  UNL1       -0.2866
      8 C           1.4610    0.1900   -0.9760 C.ar    1  UNL1        0.0321
      9 C           2.5190    0.8890   -1.5210 C.ar    1  UNL1       -0.0095
     10 C           3.6970    0.9750   -0.8120 C.ar    1  UNL1        0.1163
     11 O           4.7830    1.6690   -1.3260 O.3     1  UNL1       -0.5071
     12 C           3.7840    0.3560    0.4330 C.ar    1  UNL1        0.0141
     13 O           4.9640    0.4350    1.1590 O.co2   1  UNL1       -0.8670
     14 C           2.7410   -0.3380    0.9790 C.ar    1  UNL1        0.2697
     15 N           2.8050   -0.9780    2.2460 N.pl3   1  UNL1        0.0791
     16 O           2.0760   -1.9720    2.4530 O.2     1  UNL1        0.0414
     17 O           3.6240   -0.5670    3.2610 O.co2   1  UNL1       -0.5761
     18 C           1.5460   -0.4230    0.2530 C.ar    1  UNL1        0.0260
     19 C          -1.1790    0.5230    0.2550 C.ar    1  UNL1       -0.0507
     20 C          -2.3750    0.4110    0.9320 C.ar    1  UNL1       -0.0582
     21 H          -5.4549   -0.9084    0.6531 H       1  UNL1        0.0278
     22 H          -5.1053    0.6366    1.3905 H       1  UNL1        0.0278
     23 H          -4.5419   -0.8372    2.1412 H       1  UNL1        0.0278
     24 H          -4.0892   -1.3500   -1.2367 H       1  UNL1        0.0620
     25 H          -2.0401   -1.1741   -2.4331 H       1  UNL1        0.0625
     26 H           2.4290    1.3400   -2.4449 H       1  UNL1        0.0661
     27 H           4.7200    2.0838   -2.1638 H       1  UNL1        0.2921
     28 H           0.7386   -0.9395    0.6355 H       1  UNL1        0.0692
     29 H          -0.3930    1.0398    0.6794 H       1  UNL1        0.0625
     30 H          -2.4562    0.8533    1.8609 H       1  UNL1        0.0620
@<TRIPOS>UNITY_ATOM_ATTR
13 1
charge -1
15 1
charge 1
17 1
charge -1
@<TRIPOS>BOND
     1     1     2    1
     2     2     3   ar
     3     2    20   ar
     4     3     4   ar
     5     4     5   ar
     6     5     6    1
     7     5    19   ar
     8     6     7    2
     9     6     8    1
    10     8     9   ar
    11     8    18   ar
    12     9    10   ar
    13    10    11    1
    14    10    12   ar
    15    12    13    1
    16    12    14   ar
    17    14    15    1
    18    14    18   ar
    19    15    16    2
    20    15    17    1
    21    19    20   ar
    22     1    21    1
    23     1    22    1
    24     1    23    1
    25     3    24    1
    26     4    25    1
    27     9    26    1
    28    11    27    1
    29    18    28    1
    30    19    29    1
    31    20    30    1
@<TRIPOS>MOLECULE
../data/bude_mols_rdkit_confs_charged/molecule_41.pdb
 30 31 0 0 0
SMALL
GASTEIGER

@<TRIPOS>ATOM
      1 C          -5.1920   -0.1160   -0.4930 C.3     1  UNL1       -0.0397
      2 C          -3.7520    0.1730   -0.1600 C.ar    1  UNL1       -0.0504
      3 C          -2.7390   -0.1820   -1.0230 C.ar    1  UNL1       -0.0582
      4 C          -1.4020    0.0780   -0.7300 C.ar    1  UNL1       -0.0507
      5 C          -1.0510    0.7030    0.4390 C.ar    1  UNL1        0.0223
      6 C           0.3310    0.9710    0.7810 C.2     1  UNL1        0.1935
      7 O           0.5140    1.9550    1.5970 O.2     1  UNL1       -0.2866
      8 C           1.4940    0.2640    0.3120 C.ar    1  UNL1        0.0321
      9 C           1.4800   -1.0340   -0.1290 C.ar    1  UNL1       -0.0095
     10 C           2.6090   -1.6880   -0.5950 C.ar    1  UNL1        0.1163
     11 O           2.5470   -2.9970   -1.0300 O.3     1  UNL1       -0.5071
     12 C           3.8030   -1.0210   -0.6230 C.ar    1  UNL1        0.0141
     13 O           4.9410   -1.6650   -1.0880 O.co2   1  UNL1       -0.8670
     14 C           3.8730    0.2920   -0.1880 C.ar    1  UNL1        0.2697
     15 N           5.1050    0.9770   -0.2180 N.pl3   1  UNL1        0.0791
     16 O           5.1440    2.2020   -0.3300 O.2     1  UNL1        0.0414
     17 O           6.2600    0.2430   -0.1190 O.co2   1  UNL1       -0.5761
     18 C           2.7340    0.9190    0.2710 C.ar    1  UNL1        0.0260
     19 C          -2.0820    1.0530    1.2940 C.ar    1  UNL1       -0.0507
     20 C          -3.4020    0.8010    1.0130 C.ar    1  UNL1       -0.0582
     21 H          -5.2471   -0.6056   -1.4428 H       1  UNL1        0.0278
     22 H          -5.7401    0.8021   -0.5327 H       1  UNL1        0.0278
     23 H          -5.6119   -0.7498    0.2599 H       1  UNL1        0.0278
     24 H          -2.9766   -0.6530   -1.9100 H       1  UNL1        0.0620
     25 H          -0.6684   -0.2026   -1.3995 H       1  UNL1        0.0625
     26 H           0.5856   -1.5486   -0.1131 H       1  UNL1        0.0661
     27 H           1.7316   -3.4583   -1.0128 H       1  UNL1        0.2921
     28 H           2.7953    1.8974    0.5934 H       1  UNL1        0.0692
     29 H          -1.8480    1.5242    2.1818 H       1  UNL1        0.0625
     30 H          -4.1338    1.0835    1.6836 H       1  UNL1        0.0620
@<TRIPOS>UNITY_ATOM_ATTR
13 1
charge -1
15 1
charge 1
17 1
charge -1
@<TRIPOS>BOND
     1     1     2    1
     2     2     3   ar
     3     2    20   ar
     4     3     4   ar
     5     4     5   ar
     6     5     6    1
     7     5    19   ar
     8     6     7    2
     9     6     8    1
    10     8     9   ar
    11     8    18   ar
    12     9    10   ar
    13    10    11    1
    14    10    12   ar
    15    12    13    1
    16    12    14   ar
    17    14    15    1
    18    14    18   ar
    19    15    16    2
    20    15    17    1
    21    19    20   ar
    22     1    21    1
    23     1    22    1
    24     1    23    1
    25     3    24    1
    26     4    25    1
    27     9    26    1
    28    11    27    1
    29    18    28    1
    30    19    29    1
    31    20    30    1
@<TRIPOS>MOLECULE
../data/bude_mols_rdkit_confs_charged/molecule_41.pdb
 30 31 0 0 0
SMALL
GASTEIGER

@<TRIPOS>ATOM
      1 C          -5.1970    0.2180   -0.4450 C.3     1  UNL1       -0.0397
      2 C          -3.7710   -0.1020   -0.2170 C.ar    1  UNL1       -0.0504
      3 C          -2.7200    0.6110   -0.7720 C.ar    1  UNL1       -0.0582
      4 C          -1.3930    0.2840   -0.5650 C.ar    1  UNL1       -0.0507
      5 C          -1.0720   -0.7990    0.2290 C.ar    1  UNL1        0.0223
      6 C           0.2670   -1.2460    0.4780 C.2     1  UNL1        0.1935
      7 O           0.5170   -2.4590    0.8160 O.2     1  UNL1       -0.2866
      8 C           1.4340   -0.3980    0.3660 C.ar    1  UNL1        0.0321
      9 C           1.3870    0.9510    0.6210 C.ar    1  UNL1       -0.0095
     10 C           2.5230    1.7020    0.4520 C.ar    1  UNL1        0.1163
     11 O           2.5010    3.0610    0.7030 O.3     1  UNL1       -0.5071
     12 C           3.7250    1.1380    0.0280 C.ar    1  UNL1        0.0141
     13 O           4.8330    1.9540   -0.1250 O.co2   1  UNL1       -0.8670
     14 C           3.7790   -0.2120   -0.2290 C.ar    1  UNL1        0.2697
     15 N           5.0010   -0.8290   -0.6890 N.pl3   1  UNL1        0.0791
     16 O           5.8100   -0.1870   -1.3820 O.2     1  UNL1        0.0414
     17 O           5.2820   -2.1350   -0.3710 O.co2   1  UNL1       -0.5761
     18 C           2.6470   -0.9710   -0.0620 C.ar    1  UNL1        0.0260
     19 C          -2.1420   -1.5230    0.7950 C.ar    1  UNL1       -0.0507
     20 C          -3.4540   -1.1870    0.5800 C.ar    1  UNL1       -0.0582
     21 H          -5.2729    1.0777   -1.0775 H       1  UNL1        0.0278
     22 H          -5.6711    0.4218    0.4923 H       1  UNL1        0.0278
     23 H          -5.6786   -0.6140   -0.9148 H       1  UNL1        0.0278
     24 H          -2.9385    1.4246   -1.3681 H       1  UNL1        0.0620
     25 H          -0.6460    0.8465   -1.0017 H       1  UNL1        0.0625
     26 H           0.5093    1.3936    0.9354 H       1  UNL1        0.0661
     27 H           1.7090    3.4718    0.9894 H       1  UNL1        0.2921
     28 H           2.6861   -1.9841   -0.2545 H       1  UNL1        0.0692
     29 H          -1.9295   -2.3364    1.3936 H       1  UNL1        0.0625
     30 H          -4.2062   -1.7448    1.0137 H       1  UNL1        0.0620
@<TRIPOS>UNITY_ATOM_ATTR
13 1
charge -1
15 1
charge 1
17 1
charge -1
@<TRIPOS>BOND
     1     1     2    1
     2     2     3   ar
     3     2    20   ar
     4     3     4   ar
     5     4     5   ar
     6     5     6    1
     7     5    19   ar
     8     6     7    2
     9     6     8    1
    10     8     9   ar
    11     8    18   ar
    12     9    10   ar
    13    10    11    1
    14    10    12   ar
    15    12    13    1
    16    12    14   ar
    17    14    15    1
    18    14    18   ar
    19    15    16    2
    20    15    17    1
    21    19    20   ar
    22     1    21    1
    23     1    22    1
    24     1    23    1
    25     3    24    1
    26     4    25    1
    27     9    26    1
    28    11    27    1
    29    18    28    1
    30    19    29    1
    31    20    30    1
@<TRIPOS>MOLECULE
../data/bude_mols_rdkit_confs_charged/molecule_41.pdb
 30 31 0 0 0
SMALL
GASTEIGER

@<TRIPOS>ATOM
      1 C           5.3350   -0.1470    1.0220 C.3     1  UNL1       -0.0397
      2 C           3.9220   -0.1710    0.5560 C.ar    1  UNL1       -0.0504
      3 C           3.4340   -1.1640   -0.2600 C.ar    1  UNL1       -0.0582
      4 C           2.1320   -1.1740   -0.6750 C.ar    1  UNL1       -0.0507
      5 C           1.1910   -0.1770   -0.3060 C.ar    1  UNL1        0.0223
      6 C          -0.1650   -0.3110   -0.8100 C.2     1  UNL1        0.1935
      7 O          -0.2710   -0.9610   -1.9570 O.2     1  UNL1       -0.2866
      8 C          -1.4220    0.1210   -0.2950 C.ar    1  UNL1        0.0321
      9 C          -1.7210    1.2250    0.4440 C.ar    1  UNL1       -0.0095
     10 C          -3.0090    1.4920    0.9560 C.ar    1  UNL1        0.1163
     11 O          -3.1860    2.6520    1.6950 O.3     1  UNL1       -0.5071
     12 C          -4.0120    0.6070    0.7040 C.ar    1  UNL1        0.0141
     13 O          -5.3020    0.8390    1.1960 O.co2   1  UNL1       -0.8670
     14 C          -3.7560   -0.5320   -0.0450 C.ar    1  UNL1        0.2697
     15 N          -4.8170   -1.4420   -0.2900 N.pl3   1  UNL1        0.0791
     16 O          -4.5730   -2.6410   -0.4770 O.2     1  UNL1        0.0414
     17 O          -6.1080   -1.0130   -0.3220 O.co2   1  UNL1       -0.5761
     18 C          -2.5040   -0.7620   -0.5250 C.ar    1  UNL1        0.0260
     19 C           1.6920    0.7960    0.5010 C.ar    1  UNL1       -0.0507
     20 C           3.0330    0.8050    0.9280 C.ar    1  UNL1       -0.0582
     21 H           5.8569   -0.9910    0.6217 H       1  UNL1        0.0278
     22 H           5.3587   -0.1871    2.0910 H       1  UNL1        0.0278
     23 H           5.8053    0.7543    0.6883 H       1  UNL1        0.0278
     24 H           4.0661   -1.9200   -0.5665 H       1  UNL1        0.0620
     25 H           1.8175   -1.9437   -1.2863 H       1  UNL1        0.0625
     26 H          -0.9668    1.9016    0.6399 H       1  UNL1        0.0661
     27 H          -2.4627    3.2296    1.8407 H       1  UNL1        0.2921
     28 H          -2.3362   -1.6158   -1.0799 H       1  UNL1        0.0692
     29 H           1.0661    1.5555    0.8117 H       1  UNL1        0.0625
     30 H           3.3576    1.5698    1.5401 H       1  UNL1        0.0620
@<TRIPOS>UNITY_ATOM_ATTR
13 1
charge -1
15 1
charge 1
17 1
charge -1
@<TRIPOS>BOND
     1     1     2    1
     2     2     3   ar
     3     2    20   ar
     4     3     4   ar
     5     4     5   ar
     6     5     6    1
     7     5    19   ar
     8     6     7    2
     9     6     8    1
    10     8     9   ar
    11     8    18   ar
    12     9    10   ar
    13    10    11    1
    14    10    12   ar
    15    12    13    1
    16    12    14   ar
    17    14    15    1
    18    14    18   ar
    19    15    16    2
    20    15    17    1
    21    19    20   ar
    22     1    21    1
    23     1    22    1
    24     1    23    1
    25     3    24    1
    26     4    25    1
    27     9    26    1
    28    11    27    1
    29    18    28    1
    30    19    29    1
    31    20    30    1
@<TRIPOS>MOLECULE
../data/bude_mols_rdkit_confs_charged/molecule_41.pdb
 30 31 0 0 0
SMALL
GASTEIGER

@<TRIPOS>ATOM
      1 C           5.1570    0.2830    0.5140 C.3     1  UNL1       -0.0397
      2 C           3.7510   -0.1240    0.2660 C.ar    1  UNL1       -0.0504
      3 C           3.3820   -1.4670    0.3120 C.ar    1  UNL1       -0.0582
      4 C           2.0750   -1.8280    0.0820 C.ar    1  UNL1       -0.0507
      5 C           1.0650   -0.9020   -0.2050 C.ar    1  UNL1        0.0223
      6 C          -0.2980   -1.3450   -0.4540 C.2     1  UNL1        0.1935
      7 O          -0.4290   -2.5250   -0.9460 O.2     1  UNL1       -0.2866
      8 C          -1.4980   -0.5980   -0.2050 C.ar    1  UNL1        0.0321
      9 C          -1.5630    0.4140    0.7060 C.ar    1  UNL1       -0.0095
     10 C          -2.7480    1.1270    0.9170 C.ar    1  UNL1        0.1163
     11 O          -2.8070    2.1580    1.8510 O.3     1  UNL1       -0.5071
     12 C          -3.8760    0.7950    0.1820 C.ar    1  UNL1        0.0141
     13 O          -5.0840    1.4670    0.3430 O.co2   1  UNL1       -0.8670
     14 C          -3.8370   -0.2230   -0.7470 C.ar    1  UNL1        0.2697
     15 N          -4.9720   -0.5900   -1.5150 N.pl3   1  UNL1        0.0791
     16 O          -5.0410   -1.7850   -1.9150 O.2     1  UNL1        0.0414
     17 O          -5.9440    0.3160   -1.8010 O.co2   1  UNL1       -0.5761
     18 C          -2.6500   -0.8960   -0.9180 C.ar    1  UNL1        0.0260
     19 C           1.4490    0.4140   -0.2460 C.ar    1  UNL1       -0.0507
     20 C           2.7740    0.8010   -0.0140 C.ar    1  UNL1       -0.0582
     21 H           5.7502   -0.5854    0.7113 H       1  UNL1        0.0278
     22 H           5.1946    0.9399    1.3578 H       1  UNL1        0.0278
     23 H           5.5396    0.7878   -0.3484 H       1  UNL1        0.0278
     24 H           4.0888   -2.1900    0.5185 H       1  UNL1        0.0620
     25 H           1.8270   -2.8289    0.1229 H       1  UNL1        0.0625
     26 H          -0.7214    0.6590    1.2508 H       1  UNL1        0.0661
     27 H          -2.0457    2.3836    2.3485 H       1  UNL1        0.2921
     28 H          -2.6145   -1.6602   -1.6107 H       1  UNL1        0.0692
     29 H           0.7429    1.1375   -0.4532 H       1  UNL1        0.0625
     30 H           3.0224    1.8019   -0.0541 H       1  UNL1        0.0620
@<TRIPOS>UNITY_ATOM_ATTR
13 1
charge -1
15 1
charge 1
17 1
charge -1
@<TRIPOS>BOND
     1     1     2    1
     2     2     3   ar
     3     2    20   ar
     4     3     4   ar
     5     4     5   ar
     6     5     6    1
     7     5    19   ar
     8     6     7    2
     9     6     8    1
    10     8     9   ar
    11     8    18   ar
    12     9    10   ar
    13    10    11    1
    14    10    12   ar
    15    12    13    1
    16    12    14   ar
    17    14    15    1
    18    14    18   ar
    19    15    16    2
    20    15    17    1
    21    19    20   ar
    22     1    21    1
    23     1    22    1
    24     1    23    1
    25     3    24    1
    26     4    25    1
    27     9    26    1
    28    11    27    1
    29    18    28    1
    30    19    29    1
    31    20    30    1
@<TRIPOS>MOLECULE
../data/bude_mols_rdkit_confs_charged/molecule_41.pdb
 30 31 0 0 0
SMALL
GASTEIGER

@<TRIPOS>ATOM
      1 C          -4.8800    0.7040    0.0230 C.3     1  UNL1       -0.0397
      2 C          -3.4900    0.2310   -0.2470 C.ar    1  UNL1       -0.0504
      3 C          -3.1390   -0.1410   -1.5410 C.ar    1  UNL1       -0.0582
      4 C          -1.8920   -0.5840   -1.8780 C.ar    1  UNL1       -0.0507
      5 C          -0.9250   -0.6660   -0.8720 C.ar    1  UNL1        0.0223
      6 C           0.4030   -1.1490   -1.1990 C.2     1  UNL1        0.1935
      7 O           0.6380   -1.9690   -2.1190 O.2     1  UNL1       -0.2866
      8 C           1.5450   -0.6500   -0.4080 C.ar    1  UNL1        0.0321
      9 C           2.6500   -1.4560   -0.2400 C.ar    1  UNL1       -0.0095
     10 C           3.7220   -1.0040    0.4760 C.ar    1  UNL1        0.1163
     11 O           4.8680   -1.7960    0.6690 O.3     1  UNL1       -0.5071
     12 C           3.7410    0.2540    1.0510 C.ar    1  UNL1        0.0141
     13 O           4.8330    0.7120    1.7800 O.co2   1  UNL1       -0.8670
     14 C           2.6320    1.0570    0.8790 C.ar    1  UNL1        0.2697
     15 N           2.5660    2.3720    1.4390 N.pl3   1  UNL1        0.0791
     16 O           1.5050    2.9390    1.7530 O.2     1  UNL1        0.0414
     17 O           3.7410    3.0490    1.6420 O.co2   1  UNL1       -0.5761
     18 C           1.5390    0.6030    0.1520 C.ar    1  UNL1        0.0260
     19 C          -1.2830   -0.2950    0.4100 C.ar    1  UNL1       -0.0507
     20 C          -2.5380    0.1470    0.7310 C.ar    1  UNL1       -0.0582
     21 H          -5.4455    0.6864   -0.8852 H       1  UNL1        0.0278
     22 H          -4.8490    1.7032    0.4045 H       1  UNL1        0.0278
     23 H          -5.3418    0.0614    0.7432 H       1  UNL1        0.0278
     24 H          -3.8552   -0.0792   -2.2814 H       1  UNL1        0.0620
     25 H          -1.6695   -0.8512   -2.8497 H       1  UNL1        0.0625
     26 H           2.6677   -2.4007   -0.6549 H       1  UNL1        0.0661
     27 H           4.9098   -2.6570    0.3017 H       1  UNL1        0.2921
     28 H           0.7154    1.2131    0.0319 H       1  UNL1        0.0692
     29 H          -0.5738   -0.3537    1.1574 H       1  UNL1        0.0625
     30 H          -2.7636    0.4143    1.7019 H       1  UNL1        0.0620
@<TRIPOS>UNITY_ATOM_ATTR
13 1
charge -1
15 1
charge 1
17 1
charge -1
@<TRIPOS>BOND
     1     1     2    1
     2     2     3   ar
     3     2    20   ar
     4     3     4   ar
     5     4     5   ar
     6     5     6    1
     7     5    19   ar
     8     6     7    2
     9     6     8    1
    10     8     9   ar
    11     8    18   ar
    12     9    10   ar
    13    10    11    1
    14    10    12   ar
    15    12    13    1
    16    12    14   ar
    17    14    15    1
    18    14    18   ar
    19    15    16    2
    20    15    17    1
    21    19    20   ar
    22     1    21    1
    23     1    22    1
    24     1    23    1
    25     3    24    1
    26     4    25    1
    27     9    26    1
    28    11    27    1
    29    18    28    1
    30    19    29    1
    31    20    30    1
@<TRIPOS>MOLECULE
../data/bude_mols_rdkit_confs_charged/molecule_41.pdb
 30 31 0 0 0
SMALL
GASTEIGER

@<TRIPOS>ATOM
      1 C           5.0170    0.5250   -0.5550 C.3     1  UNL1       -0.0397
      2 C           3.6230    0.0420   -0.2530 C.ar    1  UNL1       -0.0504
      3 C           3.4290   -0.8240    0.8120 C.ar    1  UNL1       -0.0582
      4 C           2.1330   -1.2360    1.0470 C.ar    1  UNL1       -0.0507
      5 C           1.0550   -0.8350    0.2910 C.ar    1  UNL1        0.0223
      6 C          -0.2560   -1.3270    0.6110 C.2     1  UNL1        0.1935
      7 O          -0.3270   -2.4680    1.1910 O.2     1  UNL1       -0.2866
      8 C          -1.5120   -0.6400    0.3310 C.ar    1  UNL1        0.0321
      9 C          -2.6640   -1.3890    0.1560 C.ar    1  UNL1       -0.0095
     10 C          -3.8850   -0.8100   -0.1040 C.ar    1  UNL1        0.1163
     11 O          -5.0220   -1.5830   -0.2750 O.3     1  UNL1       -0.5071
     12 C          -4.0040    0.5710   -0.2000 C.ar    1  UNL1        0.0141
     13 O          -5.2230    1.1860   -0.4610 O.co2   1  UNL1       -0.8670
     14 C          -2.8640    1.3210   -0.0270 C.ar    1  UNL1        0.2697
     15 N          -2.9620    2.7340   -0.1210 N.pl3   1  UNL1        0.0791
     16 O          -3.8190    3.2400   -0.8950 O.2     1  UNL1        0.0414
     17 O          -2.1800    3.5950    0.5820 O.co2   1  UNL1       -0.5761
     18 C          -1.6280    0.7320    0.2360 C.ar    1  UNL1        0.0260
     19 C           1.2790    0.0250   -0.7600 C.ar    1  UNL1       -0.0507
     20 C           2.5670    0.4560   -1.0210 C.ar    1  UNL1       -0.0582
     21 H           5.7024    0.0974    0.1466 H       1  UNL1        0.0278
     22 H           5.0489    1.5919   -0.4799 H       1  UNL1        0.0278
     23 H           5.2901    0.2289   -1.5463 H       1  UNL1        0.0278
     24 H           4.2144   -1.1446    1.3997 H       1  UNL1        0.0620
     25 H           1.9625   -1.8813    1.8341 H       1  UNL1        0.0625
     26 H          -2.6045   -2.4171    0.2229 H       1  UNL1        0.0661
     27 H          -4.9673   -2.5165   -0.2149 H       1  UNL1        0.2921
     28 H          -0.7936    1.3264    0.3606 H       1  UNL1        0.0692
     29 H           0.4934    0.3452   -1.3477 H       1  UNL1        0.0625
     30 H           2.7355    1.1012   -1.8086 H       1  UNL1        0.0620
@<TRIPOS>UNITY_ATOM_ATTR
13 1
charge -1
15 1
charge 1
17 1
charge -1
@<TRIPOS>BOND
     1     1     2    1
     2     2     3   ar
     3     2    20   ar
     4     3     4   ar
     5     4     5   ar
     6     5     6    1
     7     5    19   ar
     8     6     7    2
     9     6     8    1
    10     8     9   ar
    11     8    18   ar
    12     9    10   ar
    13    10    11    1
    14    10    12   ar
    15    12    13    1
    16    12    14   ar
    17    14    15    1
    18    14    18   ar
    19    15    16    2
    20    15    17    1
    21    19    20   ar
    22     1    21    1
    23     1    22    1
    24     1    23    1
    25     3    24    1
    26     4    25    1
    27     9    26    1
    28    11    27    1
    29    18    28    1
    30    19    29    1
    31    20    30    1
