@<TRIPOS>MOLECULE
../data/bude_mols_rdkit_confs_charged/molecule_87.pdb
 47 49 0 0 0
SMALL
GASTEIGER

@<TRIPOS>ATOM
      1  C1        -6.4200    2.2850    0.0460 C.3     1  UNL1       -0.0624
      2  C2        -5.1820    1.4270    0.1710 C.3     1  UNL1       -0.0421
      3  C3        -5.0190    0.8400    1.5690 C.3     1  UNL1       -0.0487
      4  C4        -3.8290   -0.1000    1.2800 C.3     1  UNL1       -0.0301
      5  C5        -4.1480   -0.6760   -0.0780 C.3     1  UNL1        0.0822
      6  S1        -2.7890   -0.6480   -1.2090 S.O2    1  UNL1       -0.0002
      7  O1        -3.2260   -1.2600   -2.5150 O.2     1  UNL1       -0.1691
      8  O2        -2.3160    0.7600   -1.4630 O.2     1  UNL1       -0.1691
      9  C6        -1.4910   -1.6480   -0.6010 C.ar    1  UNL1        0.0892
     10  C7        -1.8160   -2.9330   -0.2320 C.ar    1  UNL1       -0.0368
     11  C8        -0.7910   -3.7480    0.1910 C.ar    1  UNL1       -0.0592
     12  C9         0.4870   -3.2590    0.2280 C.ar    1  UNL1       -0.0496
     13  C10        0.8610   -1.9750   -0.1340 C.ar    1  UNL1        0.0374
     14  C11        2.2490   -1.5520   -0.1180 C.2     1  UNL1        0.2305
     15  O3         3.1130   -2.4080    0.2640 O.2     1  UNL1       -0.2714
     16  N1         2.6850   -0.2570   -0.5040 N.am    1  UNL1       -0.3921
     17  N2         4.0470   -0.0120   -0.4590 N.am    1  UNL1       -0.5551
     18  C12        4.7410    0.7050    0.5090 C.2     1  UNL1        0.1081
     19  O4         4.1700    1.0340    1.5840 O.2     1  UNL1       -0.3106
     20  C13        6.1370    1.0930    0.3190 C.ar    1  UNL1        0.0884
     21  C14        6.7990    1.8210    1.3240 C.ar    1  UNL1       -0.0344
     22  C15        8.1110    2.2060    1.1720 C.ar    1  UNL1       -0.0583
     23  C16        8.8050    1.8870    0.0300 C.ar    1  UNL1       -0.0436
     24  C17        8.1460    1.1660   -0.9630 C.ar    1  UNL1        0.0283
     25  N3         6.8670    0.8200   -0.7520 N.ar    1  UNL1       -0.2536
     26  C18       -0.1960   -1.1680   -0.5580 C.ar    1  UNL1       -0.0248
     27  C19       -5.2830    0.1700   -0.6580 C.3     1  UNL1       -0.0277
     28 H          -6.3076    3.1630    0.6472 H       1  UNL1        0.0232
     29 H          -7.2728    1.7313    0.3792 H       1  UNL1        0.0232
     30 H          -6.5560    2.5681   -0.9769 H       1  UNL1        0.0232
     31 H          -4.3910    2.0871   -0.1180 H       1  UNL1        0.0299
     32 H          -5.8892    0.3042    1.8860 H       1  UNL1        0.0268
     33 H          -4.8731    1.5480    2.3579 H       1  UNL1        0.0268
     34 H          -3.7661   -0.8732    2.0170 H       1  UNL1        0.0284
     35 H          -2.8864    0.4057    1.3043 H       1  UNL1        0.0284
     36 H          -4.4060   -1.7064    0.0509 H       1  UNL1        0.0540
     37 H          -2.7899   -3.2722   -0.2709 H       1  UNL1        0.0636
     38 H          -0.9843   -4.7202    0.4781 H       1  UNL1        0.0618
     39 H           1.2308   -3.8973    0.5511 H       1  UNL1        0.0625
     40 H           2.0472    0.4359   -0.7909 H       1  UNL1        0.1290
     41 H           6.2930    2.0701    2.1883 H       1  UNL1        0.0639
     42 H           8.5779    2.7390    1.9223 H       1  UNL1        0.0619
     43 H           9.7891    2.1741   -0.0890 H       1  UNL1        0.0633
     44 H           8.6284    0.9051   -1.8372 H       1  UNL1        0.0830
     45 H          -0.0068   -0.1948   -0.8447 H       1  UNL1        0.0644
     46 H          -5.1259    0.3740   -1.6966 H       1  UNL1        0.0286
     47 H          -6.2422   -0.3023   -0.6157 H       1  UNL1        0.0286
@<TRIPOS>UNITY_ATOM_ATTR
17 1
charge -1
@<TRIPOS>BOND
     1     1     2    1
     2     2     3    1
     3     2    27    1
     4     3     4    1
     5     4     5    1
     6     5     6    1
     7     5    27    1
     8     6     7    2
     9     6     8    2
    10     6     9    1
    11     9    10   ar
    12     9    26   ar
    13    10    11   ar
    14    11    12   ar
    15    12    13   ar
    16    13    14    1
    17    13    26   ar
    18    14    15    2
    19    14    16   am
    20    16    17    1
    21    17    18    1
    22    18    19    2
    23    18    20    1
    24    20    21   ar
    25    20    25   ar
    26    21    22   ar
    27    22    23   ar
    28    23    24   ar
    29    24    25   ar
    30     1    28    1
    31     1    29    1
    32     1    30    1
    33     2    31    1
    34     3    32    1
    35     3    33    1
    36     4    34    1
    37     4    35    1
    38     5    36    1
    39    10    37    1
    40    11    38    1
    41    12    39    1
    42    16    40    1
    43    21    41    1
    44    22    42    1
    45    23    43    1
    46    24    44    1
    47    26    45    1
    48    27    46    1
    49    27    47    1
@<TRIPOS>MOLECULE
../data/bude_mols_rdkit_confs_charged/molecule_87.pdb
 47 49 0 0 0
SMALL
GASTEIGER

@<TRIPOS>ATOM
      1  C1        -6.0390    1.9780   -0.8810 C.3     1  UNL1       -0.0624
      2  C2        -6.1210    0.7070   -0.0510 C.3     1  UNL1       -0.0421
      3  C3        -5.6750   -0.4890   -0.8890 C.3     1  UNL1       -0.0487
      4  C4        -4.4090   -1.0010   -0.1540 C.3     1  UNL1       -0.0301
      5  C5        -3.8440    0.3220    0.2770 C.3     1  UNL1        0.0822
      6  S1        -2.4040    0.2830    1.2520 S.O2    1  UNL1       -0.0002
      7  O1        -2.6390   -0.6440    2.4150 O.2     1  UNL1       -0.1691
      8  O2        -2.1900    1.6610    1.8250 O.2     1  UNL1       -0.1691
      9  C6        -1.0400   -0.2210    0.2870 C.ar    1  UNL1        0.0892
     10  C7        -1.1610   -0.3380   -1.0940 C.ar    1  UNL1       -0.0368
     11  C8        -0.1070   -0.7020   -1.9060 C.ar    1  UNL1       -0.0592
     12  C9         1.1050   -0.9530   -1.2930 C.ar    1  UNL1       -0.0496
     13  C10        1.3000   -0.8540    0.0840 C.ar    1  UNL1        0.0374
     14  C11        2.6210   -1.1210    0.6150 C.2     1  UNL1        0.2305
     15  O3         3.5250   -1.5440   -0.1840 O.2     1  UNL1       -0.2714
     16  N1         3.0050   -0.9510    1.9490 N.am    1  UNL1       -0.3921
     17  N2         4.3360   -1.2460    2.3270 N.am    1  UNL1       -0.5551
     18  C12        5.3030   -1.5150    1.3460 C.2     1  UNL1        0.1081
     19  O4         5.4910   -2.7420    1.0380 O.2     1  UNL1       -0.3106
     20  C13        6.0900   -0.4870    0.6680 C.ar    1  UNL1        0.0884
     21  C14        7.0030   -0.8430   -0.3080 C.ar    1  UNL1       -0.0344
     22  C15        7.7080    0.1870   -0.9140 C.ar    1  UNL1       -0.0583
     23  C16        7.4990    1.5030   -0.5520 C.ar    1  UNL1       -0.0436
     24  C17        6.5770    1.8170    0.4280 C.ar    1  UNL1        0.0283
     25  N3         5.9120    0.8030    0.9950 N.ar    1  UNL1       -0.2536
     26  C18        0.2130   -0.4900    0.8310 C.ar    1  UNL1       -0.0248
     27  C19       -5.0550    0.8690    1.0460 C.3     1  UNL1       -0.0277
     28 H          -6.7595    1.9352   -1.6709 H       1  UNL1        0.0232
     29 H          -5.0577    2.0691   -1.2978 H       1  UNL1        0.0232
     30 H          -6.2421    2.8242   -0.2585 H       1  UNL1        0.0232
     31 H          -7.1153    0.5557    0.3142 H       1  UNL1        0.0299
     32 H          -5.4404   -0.1882   -1.8887 H       1  UNL1        0.0268
     33 H          -6.4336   -1.2382   -0.9792 H       1  UNL1        0.0268
     34 H          -3.7474   -1.5261   -0.8108 H       1  UNL1        0.0284
     35 H          -4.5837   -1.7070    0.6308 H       1  UNL1        0.0284
     36 H          -3.4855    0.9037   -0.5464 H       1  UNL1        0.0540
     37 H          -2.0768   -0.1446   -1.5287 H       1  UNL1        0.0636
     38 H          -0.2193   -0.7834   -2.9286 H       1  UNL1        0.0618
     39 H           1.9058   -1.2274   -1.8833 H       1  UNL1        0.0625
     40 H           2.3569   -0.6299    2.6169 H       1  UNL1        0.1290
     41 H           7.1529   -1.8290   -0.5732 H       1  UNL1        0.0639
     42 H           8.3998   -0.0341   -1.6472 H       1  UNL1        0.0619
     43 H           8.0333    2.2547   -1.0151 H       1  UNL1        0.0633
     44 H           6.4077    2.7947    0.7117 H       1  UNL1        0.0830
     45 H           0.3282   -0.4105    1.8535 H       1  UNL1        0.0644
     46 H          -5.2784    0.2839    1.9136 H       1  UNL1        0.0286
     47 H          -4.9443    1.8572    1.4412 H       1  UNL1        0.0286
@<TRIPOS>UNITY_ATOM_ATTR
17 1
charge -1
@<TRIPOS>BOND
     1     1     2    1
     2     2     3    1
     3     2    27    1
     4     3     4    1
     5     4     5    1
     6     5     6    1
     7     5    27    1
     8     6     7    2
     9     6     8    2
    10     6     9    1
    11     9    10   ar
    12     9    26   ar
    13    10    11   ar
    14    11    12   ar
    15    12    13   ar
    16    13    14    1
    17    13    26   ar
    18    14    15    2
    19    14    16   am
    20    16    17    1
    21    17    18    1
    22    18    19    2
    23    18    20    1
    24    20    21   ar
    25    20    25   ar
    26    21    22   ar
    27    22    23   ar
    28    23    24   ar
    29    24    25   ar
    30     1    28    1
    31     1    29    1
    32     1    30    1
    33     2    31    1
    34     3    32    1
    35     3    33    1
    36     4    34    1
    37     4    35    1
    38     5    36    1
    39    10    37    1
    40    11    38    1
    41    12    39    1
    42    16    40    1
    43    21    41    1
    44    22    42    1
    45    23    43    1
    46    24    44    1
    47    26    45    1
    48    27    46    1
    49    27    47    1
@<TRIPOS>MOLECULE
../data/bude_mols_rdkit_confs_charged/molecule_87.pdb
 47 49 0 0 0
SMALL
GASTEIGER

@<TRIPOS>ATOM
      1  C1        -5.2520    0.5080   -2.0560 C.3     1  UNL1       -0.0624
      2  C2        -5.6360    0.1060   -0.6380 C.3     1  UNL1       -0.0421
      3  C3        -5.7630   -1.4060   -0.5340 C.3     1  UNL1       -0.0487
      4  C4        -4.8670   -1.7850    0.6410 C.3     1  UNL1       -0.0301
      5  C5        -3.7350   -0.7800    0.4200 C.3     1  UNL1        0.0822
      6  S1        -2.6370   -0.7560    1.8060 S.O2    1  UNL1       -0.0002
      7  O1        -2.0110   -2.1080    1.9970 O.2     1  UNL1       -0.1691
      8  O2        -3.3090   -0.3700    3.0660 O.2     1  UNL1       -0.1691
      9  C6        -1.3380    0.3780    1.4240 C.ar    1  UNL1        0.0892
     10  C7        -1.4740    1.7280    1.6250 C.ar    1  UNL1       -0.0368
     11  C8        -0.4440    2.6030    1.3420 C.ar    1  UNL1       -0.0592
     12  C9         0.7370    2.0950    0.8490 C.ar    1  UNL1       -0.0496
     13  C10        0.8780    0.7560    0.6460 C.ar    1  UNL1        0.0374
     14  C11        2.1620    0.2320    0.1320 C.2     1  UNL1        0.2305
     15  O3         2.9180    0.9890   -0.5040 O.2     1  UNL1       -0.2714
     16  N1         2.5250   -1.1080    0.3650 N.am    1  UNL1       -0.3921
     17  N2         3.7290   -1.5970   -0.1110 N.am    1  UNL1       -0.5551
     18  C12        4.5140   -0.9440   -1.0790 C.2     1  UNL1        0.1081
     19  O4         4.1160   -0.7100   -2.2460 O.2     1  UNL1       -0.3106
     20  C13        5.8530   -0.5090   -0.7390 C.ar    1  UNL1        0.0884
     21  C14        6.6930    0.1280   -1.6530 C.ar    1  UNL1       -0.0344
     22  C15        7.9620    0.5190   -1.3040 C.ar    1  UNL1       -0.0583
     23  C16        8.4230    0.2850   -0.0430 C.ar    1  UNL1       -0.0436
     24  C17        7.5710   -0.3460    0.8390 C.ar    1  UNL1        0.0283
     25  N3         6.3300   -0.7250    0.4890 N.ar    1  UNL1       -0.2536
     26  C18       -0.1470   -0.1060    0.9270 C.ar    1  UNL1       -0.0248
     27  C19       -4.4980    0.5020    0.2650 C.3     1  UNL1       -0.0277
     28 H          -6.0404    0.2409   -2.7283 H       1  UNL1        0.0232
     29 H          -4.3539    0.0003   -2.3398 H       1  UNL1        0.0232
     30 H          -5.0919    1.5652   -2.0960 H       1  UNL1        0.0232
     31 H          -6.5616    0.5738   -0.3747 H       1  UNL1        0.0299
     32 H          -5.4258   -1.8766   -1.4339 H       1  UNL1        0.0268
     33 H          -6.7758   -1.7202   -0.3911 H       1  UNL1        0.0268
     34 H          -4.5236   -2.7961    0.5728 H       1  UNL1        0.0284
     35 H          -5.3328   -1.7461    1.6035 H       1  UNL1        0.0284
     36 H          -3.1001   -0.9938   -0.4143 H       1  UNL1        0.0540
     37 H          -2.3638    2.0971    1.9951 H       1  UNL1        0.0636
     38 H          -0.5570    3.6170    1.4968 H       1  UNL1        0.0618
     39 H           1.5192    2.7323    0.6323 H       1  UNL1        0.0625
     40 H           1.9201   -1.6995    0.8685 H       1  UNL1        0.1290
     41 H           6.3536    0.3089   -2.6107 H       1  UNL1        0.0639
     42 H           8.5661    0.9896   -1.9958 H       1  UNL1        0.0619
     43 H           9.3736    0.5692    0.2411 H       1  UNL1        0.0633
     44 H           7.8973   -0.5334    1.7999 H       1  UNL1        0.0830
     45 H          -0.0282   -1.1185    0.7668 H       1  UNL1        0.0644
     46 H          -4.8593    0.8521    1.2094 H       1  UNL1        0.0286
     47 H          -3.9058    1.3027   -0.1262 H       1  UNL1        0.0286
@<TRIPOS>UNITY_ATOM_ATTR
17 1
charge -1
@<TRIPOS>BOND
     1     1     2    1
     2     2     3    1
     3     2    27    1
     4     3     4    1
     5     4     5    1
     6     5     6    1
     7     5    27    1
     8     6     7    2
     9     6     8    2
    10     6     9    1
    11     9    10   ar
    12     9    26   ar
    13    10    11   ar
    14    11    12   ar
    15    12    13   ar
    16    13    14    1
    17    13    26   ar
    18    14    15    2
    19    14    16   am
    20    16    17    1
    21    17    18    1
    22    18    19    2
    23    18    20    1
    24    20    21   ar
    25    20    25   ar
    26    21    22   ar
    27    22    23   ar
    28    23    24   ar
    29    24    25   ar
    30     1    28    1
    31     1    29    1
    32     1    30    1
    33     2    31    1
    34     3    32    1
    35     3    33    1
    36     4    34    1
    37     4    35    1
    38     5    36    1
    39    10    37    1
    40    11    38    1
    41    12    39    1
    42    16    40    1
    43    21    41    1
    44    22    42    1
    45    23    43    1
    46    24    44    1
    47    26    45    1
    48    27    46    1
    49    27    47    1
@<TRIPOS>MOLECULE
../data/bude_mols_rdkit_confs_charged/molecule_87.pdb
 47 49 0 0 0
SMALL
GASTEIGER

@<TRIPOS>ATOM
      1  C1        -7.2150    0.6940    0.3200 C.3     1  UNL1       -0.0624
      2  C2        -5.7460    0.4440    0.0340 C.3     1  UNL1       -0.0421
      3  C3        -4.8870    1.1650    1.0470 C.3     1  UNL1       -0.0487
      4  C4        -3.9250    0.1650    1.5620 C.3     1  UNL1       -0.0301
      5  C5        -4.0430   -1.0370    0.6940 C.3     1  UNL1        0.0822
      6  S1        -3.0240   -1.0200   -0.7480 S.O2    1  UNL1       -0.0002
      7  O1        -3.1770    0.2150   -1.5540 O.2     1  UNL1       -0.1691
      8  O2        -3.3860   -2.2550   -1.5510 O.2     1  UNL1       -0.1691
      9  C6        -1.3630   -1.1630   -0.2570 C.ar    1  UNL1        0.0892
     10  C7        -0.8910   -2.4230    0.1010 C.ar    1  UNL1       -0.0368
     11  C8         0.4130   -2.5630    0.4710 C.ar    1  UNL1       -0.0592
     12  C9         1.2820   -1.4980    0.5030 C.ar    1  UNL1       -0.0496
     13  C10        0.7920   -0.2460    0.1410 C.ar    1  UNL1        0.0374
     14  C11        1.7000    0.8880    0.1280 C.2     1  UNL1        0.2305
     15  O3         1.4370    1.9710    0.6520 O.2     1  UNL1       -0.2714
     16  N1         2.9690    0.7140   -0.5380 N.am    1  UNL1       -0.3921
     17  N2         3.8440    1.7750   -0.5630 N.am    1  UNL1       -0.5551
     18  C12        5.0390    1.7270   -1.2950 C.2     1  UNL1        0.1081
     19  O4         5.0290    2.0990   -2.4840 O.2     1  UNL1       -0.3106
     20  C13        6.2760    1.2590   -0.7030 C.ar    1  UNL1        0.0884
     21  C14        7.4600    1.2180   -1.3820 C.ar    1  UNL1       -0.0344
     22  C15        8.6020    0.7630   -0.7560 C.ar    1  UNL1       -0.0583
     23  C16        8.5380    0.3540    0.5530 C.ar    1  UNL1       -0.0436
     24  C17        7.3220    0.4140    1.1990 C.ar    1  UNL1        0.0283
     25  N3         6.2220    0.8540    0.5910 N.ar    1  UNL1       -0.2536
     26  C18       -0.5000   -0.0810   -0.2300 C.ar    1  UNL1       -0.0248
     27  C19       -5.5090   -1.0270    0.2650 C.3     1  UNL1       -0.0277
     28 H          -7.4363    1.7300    0.1697 H       1  UNL1        0.0232
     29 H          -7.4317    0.4263    1.3330 H       1  UNL1        0.0232
     30 H          -7.8129    0.1020   -0.3411 H       1  UNL1        0.0232
     31 H          -5.5085    0.7708   -0.9568 H       1  UNL1        0.0299
     32 H          -5.4923    1.5420    1.8447 H       1  UNL1        0.0268
     33 H          -4.3824    1.9991    0.6059 H       1  UNL1        0.0268
     34 H          -4.1635   -0.0874    2.5741 H       1  UNL1        0.0284
     35 H          -2.9272    0.5511    1.5470 H       1  UNL1        0.0284
     36 H          -3.7241   -1.9037    1.2343 H       1  UNL1        0.0540
     37 H          -1.5207   -3.2405    0.0863 H       1  UNL1        0.0636
     38 H           0.7594   -3.4984    0.7357 H       1  UNL1        0.0618
     39 H           2.2665   -1.6227    0.7864 H       1  UNL1        0.0625
     40 H           3.2023   -0.1426   -0.9636 H       1  UNL1        0.1290
     41 H           7.5006    1.5280   -2.3655 H       1  UNL1        0.0639
     42 H           9.4976    0.7303   -1.2678 H       1  UNL1        0.0619
     43 H           9.3797    0.0101    1.0412 H       1  UNL1        0.0633
     44 H           7.2622    0.1089    2.1831 H       1  UNL1        0.0830
     45 H          -0.8428    0.8559   -0.4939 H       1  UNL1        0.0644
     46 H          -5.6576   -1.5921   -0.6314 H       1  UNL1        0.0286
     47 H          -6.1744   -1.4690    0.9769 H       1  UNL1        0.0286
@<TRIPOS>UNITY_ATOM_ATTR
17 1
charge -1
@<TRIPOS>BOND
     1     1     2    1
     2     2     3    1
     3     2    27    1
     4     3     4    1
     5     4     5    1
     6     5     6    1
     7     5    27    1
     8     6     7    2
     9     6     8    2
    10     6     9    1
    11     9    10   ar
    12     9    26   ar
    13    10    11   ar
    14    11    12   ar
    15    12    13   ar
    16    13    14    1
    17    13    26   ar
    18    14    15    2
    19    14    16   am
    20    16    17    1
    21    17    18    1
    22    18    19    2
    23    18    20    1
    24    20    21   ar
    25    20    25   ar
    26    21    22   ar
    27    22    23   ar
    28    23    24   ar
    29    24    25   ar
    30     1    28    1
    31     1    29    1
    32     1    30    1
    33     2    31    1
    34     3    32    1
    35     3    33    1
    36     4    34    1
    37     4    35    1
    38     5    36    1
    39    10    37    1
    40    11    38    1
    41    12    39    1
    42    16    40    1
    43    21    41    1
    44    22    42    1
    45    23    43    1
    46    24    44    1
    47    26    45    1
    48    27    46    1
    49    27    47    1
@<TRIPOS>MOLECULE
../data/bude_mols_rdkit_confs_charged/molecule_87.pdb
 47 49 0 0 0
SMALL
GASTEIGER

@<TRIPOS>ATOM
      1  C1         6.8900    0.7440    0.8110 C.3     1  UNL1       -0.0624
      2  C2         5.4610    0.3970    0.4410 C.3     1  UNL1       -0.0421
      3  C3         4.7340    1.5760   -0.1540 C.3     1  UNL1       -0.0487
      4  C4         3.6530    0.9280   -1.0160 C.3     1  UNL1       -0.0301
      5  C5         4.0270   -0.5110   -1.1930 C.3     1  UNL1        0.0822
      6  S1         3.0600   -1.6260   -0.2080 S.O2    1  UNL1       -0.0002
      7  O1         3.2140   -1.4290    1.2520 O.2     1  UNL1       -0.1691
      8  O2         3.4620   -3.0660   -0.4920 O.2     1  UNL1       -0.1691
      9  C6         1.3830   -1.4990   -0.6860 C.ar    1  UNL1        0.0892
     10  C7         0.8160   -2.2830   -1.6610 C.ar    1  UNL1       -0.0368
     11  C8        -0.5230   -2.1530   -1.9920 C.ar    1  UNL1       -0.0592
     12  C9        -1.2850   -1.2040   -1.3100 C.ar    1  UNL1       -0.0496
     13  C10       -0.7320   -0.4100   -0.3300 C.ar    1  UNL1        0.0374
     14  C11       -1.5800    0.5560    0.3600 C.2     1  UNL1        0.2305
     15  O3        -1.2650    1.7710    0.4610 O.2     1  UNL1       -0.2714
     16  N1        -2.8050    0.1350    0.9470 N.am    1  UNL1       -0.3921
     17  N2        -3.5950    1.0820    1.6000 N.am    1  UNL1       -0.5551
     18  C12       -4.7980    0.6610    2.2250 C.2     1  UNL1        0.1081
     19  O4        -4.8680    0.3490    3.4360 O.2     1  UNL1       -0.3106
     20  C13       -6.0050    0.5890    1.4180 C.ar    1  UNL1        0.0884
     21  C14       -7.2040    0.1840    1.9440 C.ar    1  UNL1       -0.0344
     22  C15       -8.3640    0.1090    1.1780 C.ar    1  UNL1       -0.0583
     23  C16       -8.3010    0.4550   -0.1570 C.ar    1  UNL1       -0.0436
     24  C17       -7.0920    0.8570   -0.6650 C.ar    1  UNL1        0.0283
     25  N3        -5.9900    0.9200    0.0970 N.ar    1  UNL1       -0.2536
     26  C18        0.5990   -0.5640   -0.0250 C.ar    1  UNL1       -0.0248
     27  C19        5.4520   -0.5740   -0.7130 C.3     1  UNL1       -0.0277
     28 H           6.8892    1.4328    1.6298 H       1  UNL1        0.0232
     29 H           7.3779    1.1905   -0.0302 H       1  UNL1        0.0232
     30 H           7.4113   -0.1464    1.0944 H       1  UNL1        0.0232
     31 H           5.0136    0.0354    1.3432 H       1  UNL1        0.0299
     32 H           5.3936    2.1711   -0.7505 H       1  UNL1        0.0268
     33 H           4.3362    2.2381    0.5865 H       1  UNL1        0.0268
     34 H           3.6044    1.4134   -1.9683 H       1  UNL1        0.0284
     35 H           2.6940    1.0153   -0.5496 H       1  UNL1        0.0284
     36 H           3.8713   -0.8087   -2.2089 H       1  UNL1        0.0540
     37 H           1.3962   -2.9794   -2.1544 H       1  UNL1        0.0636
     38 H          -0.9463   -2.7435   -2.7249 H       1  UNL1        0.0618
     39 H          -2.2840   -1.0947   -1.5448 H       1  UNL1        0.0625
     40 H          -3.0900   -0.8058    0.8937 H       1  UNL1        0.1290
     41 H          -7.2484   -0.0742    2.9422 H       1  UNL1        0.0639
     42 H          -9.2539   -0.1993    1.6000 H       1  UNL1        0.0619
     43 H          -9.1402    0.4124   -0.7561 H       1  UNL1        0.0633
     44 H          -7.0285    1.1183   -1.6614 H       1  UNL1        0.0830
     45 H           1.0228    0.0258    0.7082 H       1  UNL1        0.0644
     46 H           5.7055   -1.5613   -0.3876 H       1  UNL1        0.0286
     47 H           6.1654   -0.3338   -1.4734 H       1  UNL1        0.0286
@<TRIPOS>UNITY_ATOM_ATTR
17 1
charge -1
@<TRIPOS>BOND
     1     1     2    1
     2     2     3    1
     3     2    27    1
     4     3     4    1
     5     4     5    1
     6     5     6    1
     7     5    27    1
     8     6     7    2
     9     6     8    2
    10     6     9    1
    11     9    10   ar
    12     9    26   ar
    13    10    11   ar
    14    11    12   ar
    15    12    13   ar
    16    13    14    1
    17    13    26   ar
    18    14    15    2
    19    14    16   am
    20    16    17    1
    21    17    18    1
    22    18    19    2
    23    18    20    1
    24    20    21   ar
    25    20    25   ar
    26    21    22   ar
    27    22    23   ar
    28    23    24   ar
    29    24    25   ar
    30     1    28    1
    31     1    29    1
    32     1    30    1
    33     2    31    1
    34     3    32    1
    35     3    33    1
    36     4    34    1
    37     4    35    1
    38     5    36    1
    39    10    37    1
    40    11    38    1
    41    12    39    1
    42    16    40    1
    43    21    41    1
    44    22    42    1
    45    23    43    1
    46    24    44    1
    47    26    45    1
    48    27    46    1
    49    27    47    1
@<TRIPOS>MOLECULE
../data/bude_mols_rdkit_confs_charged/molecule_87.pdb
 47 49 0 0 0
SMALL
GASTEIGER

@<TRIPOS>ATOM
      1  C1        -6.1130    0.8160   -1.8070 C.3     1  UNL1       -0.0624
      2  C2        -5.9270   -0.0670   -0.6190 C.3     1  UNL1       -0.0421
      3  C3        -5.9530   -1.5450   -0.9350 C.3     1  UNL1       -0.0487
      4  C4        -5.1040   -2.0870    0.2240 C.3     1  UNL1       -0.0301
      5  C5        -3.9300   -1.1270    0.1480 C.3     1  UNL1        0.0822
      6  S1        -2.8570   -1.2870    1.5420 S.O2    1  UNL1       -0.0002
      7  O1        -3.6540   -0.9390    2.7820 O.2     1  UNL1       -0.1691
      8  O2        -2.3370   -2.6650    1.7040 O.2     1  UNL1       -0.1691
      9  C6        -1.5470   -0.1420    1.3470 C.ar    1  UNL1        0.0892
     10  C7        -1.6610    1.1620    1.8460 C.ar    1  UNL1       -0.0368
     11  C8        -0.6380    2.0700    1.6990 C.ar    1  UNL1       -0.0592
     12  C9         0.5350    1.7280    1.0580 C.ar    1  UNL1       -0.0496
     13  C10        0.6570    0.4590    0.5670 C.ar    1  UNL1        0.0374
     14  C11        1.8610    0.0230   -0.1230 C.2     1  UNL1        0.2305
     15  O3         1.9740   -1.1740   -0.5200 O.2     1  UNL1       -0.2714
     16  N1         2.9690    0.8620   -0.4000 N.am    1  UNL1       -0.3921
     17  N2         4.1160    0.3850   -1.0750 N.am    1  UNL1       -0.5551
     18  C12        5.1020   -0.3950   -0.4520 C.2     1  UNL1        0.1081
     19  O4         4.7470   -1.4570    0.1400 O.2     1  UNL1       -0.3106
     20  C13        6.5000   -0.0030   -0.4780 C.ar    1  UNL1        0.0884
     21  C14        7.4970   -0.7430    0.1220 C.ar    1  UNL1       -0.0344
     22  C15        8.8290   -0.3460    0.0830 C.ar    1  UNL1       -0.0583
     23  C16        9.1170    0.8250   -0.5850 C.ar    1  UNL1       -0.0436
     24  C17        8.1210    1.5760   -1.1920 C.ar    1  UNL1        0.0283
     25  N3         6.8590    1.1270   -1.1110 N.ar    1  UNL1       -0.2536
     26  C18       -0.3770   -0.4560    0.7160 C.ar    1  UNL1       -0.0248
     27  C19       -4.6120    0.1960    0.0790 C.3     1  UNL1       -0.0277
     28 H          -7.0527    0.5978   -2.2699 H       1  UNL1        0.0232
     29 H          -5.3221    0.6437   -2.5068 H       1  UNL1        0.0232
     30 H          -6.0976    1.8398   -1.4963 H       1  UNL1        0.0232
     31 H          -6.7619    0.1760    0.0045 H       1  UNL1        0.0299
     32 H          -5.5069   -1.7549   -1.8847 H       1  UNL1        0.0268
     33 H          -6.9320   -1.9701   -1.0107 H       1  UNL1        0.0268
     34 H          -4.8022   -3.1000    0.0576 H       1  UNL1        0.0284
     35 H          -5.5996   -2.1250    1.1716 H       1  UNL1        0.0284
     36 H          -3.2773   -1.2998   -0.6821 H       1  UNL1        0.0540
     37 H          -2.5262    1.4460    2.3316 H       1  UNL1        0.0636
     38 H          -0.7500    3.0245    2.0751 H       1  UNL1        0.0618
     39 H           1.2999    2.4127    0.9523 H       1  UNL1        0.0625
     40 H           2.9392    1.8037   -0.1143 H       1  UNL1        0.1290
     41 H           7.2476   -1.6155    0.6135 H       1  UNL1        0.0639
     42 H           9.5703   -0.9041    0.5348 H       1  UNL1        0.0619
     43 H          10.0952    1.1501   -0.6346 H       1  UNL1        0.0633
     44 H           8.3435    2.4521   -1.6900 H       1  UNL1        0.0830
     45 H          -0.2570   -1.4080    0.3361 H       1  UNL1        0.0644
     46 H          -4.7807    0.5821    1.0625 H       1  UNL1        0.0286
     47 H          -4.0226    0.9212   -0.4422 H       1  UNL1        0.0286
@<TRIPOS>UNITY_ATOM_ATTR
17 1
charge -1
@<TRIPOS>BOND
     1     1     2    1
     2     2     3    1
     3     2    27    1
     4     3     4    1
     5     4     5    1
     6     5     6    1
     7     5    27    1
     8     6     7    2
     9     6     8    2
    10     6     9    1
    11     9    10   ar
    12     9    26   ar
    13    10    11   ar
    14    11    12   ar
    15    12    13   ar
    16    13    14    1
    17    13    26   ar
    18    14    15    2
    19    14    16   am
    20    16    17    1
    21    17    18    1
    22    18    19    2
    23    18    20    1
    24    20    21   ar
    25    20    25   ar
    26    21    22   ar
    27    22    23   ar
    28    23    24   ar
    29    24    25   ar
    30     1    28    1
    31     1    29    1
    32     1    30    1
    33     2    31    1
    34     3    32    1
    35     3    33    1
    36     4    34    1
    37     4    35    1
    38     5    36    1
    39    10    37    1
    40    11    38    1
    41    12    39    1
    42    16    40    1
    43    21    41    1
    44    22    42    1
    45    23    43    1
    46    24    44    1
    47    26    45    1
    48    27    46    1
    49    27    47    1
@<TRIPOS>MOLECULE
../data/bude_mols_rdkit_confs_charged/molecule_87.pdb
 47 49 0 0 0
SMALL
GASTEIGER

@<TRIPOS>ATOM
      1  C1        -6.9590    0.4130    0.2830 C.3     1  UNL1       -0.0624
      2  C2        -5.5000    0.6010    0.5740 C.3     1  UNL1       -0.0421
      3  C3        -5.0560   -0.0390    1.8870 C.3     1  UNL1       -0.0487
      4  C4        -3.6680   -0.6160    1.5100 C.3     1  UNL1       -0.0301
      5  C5        -4.0820   -1.2720    0.1850 C.3     1  UNL1        0.0822
      6  S1        -2.7130   -1.9440   -0.7000 S.O2    1  UNL1       -0.0002
      7  O1        -3.2010   -2.5780   -1.9550 O.2     1  UNL1       -0.1691
      8  O2        -1.9690   -2.9710    0.0890 O.2     1  UNL1       -0.1691
      9  C6        -1.5750   -0.6820   -1.1650 C.ar    1  UNL1        0.0892
     10  C7        -1.8410    0.1450   -2.2310 C.ar    1  UNL1       -0.0368
     11  C8        -0.9290    1.1110   -2.5760 C.ar    1  UNL1       -0.0592
     12  C9         0.2410    1.2530   -1.8640 C.ar    1  UNL1       -0.0496
     13  C10        0.5310    0.4270   -0.7840 C.ar    1  UNL1        0.0374
     14  C11        1.7710    0.5930   -0.0840 C.2     1  UNL1        0.2305
     15  O3         2.0510    1.7400    0.3790 O.2     1  UNL1       -0.2714
     16  N1         2.7080   -0.4310    0.1230 N.am    1  UNL1       -0.3921
     17  N2         3.9380   -0.2820    0.7940 N.am    1  UNL1       -0.5551
     18  C12        5.1640   -0.3610    0.0580 C.2     1  UNL1        0.1081
     19  O4         5.1530   -0.8190   -1.1350 O.2     1  UNL1       -0.3106
     20  C13        6.3850    0.0770    0.6780 C.ar    1  UNL1        0.0884
     21  C14        7.5850   -0.0040   -0.0490 C.ar    1  UNL1       -0.0344
     22  C15        8.7540    0.4020    0.5210 C.ar    1  UNL1       -0.0583
     23  C16        8.7530    0.8920    1.8060 C.ar    1  UNL1       -0.0436
     24  C17        7.5740    0.9710    2.5110 C.ar    1  UNL1        0.0283
     25  N3         6.4160    0.5540    1.9120 N.ar    1  UNL1       -0.2536
     26  C18       -0.3880   -0.5220   -0.4590 C.ar    1  UNL1       -0.0248
     27  C19       -4.7120   -0.1010   -0.5260 C.3     1  UNL1       -0.0277
     28 H          -7.5391    0.8967    1.0409 H       1  UNL1        0.0232
     29 H          -7.1885   -0.6320    0.2707 H       1  UNL1        0.0232
     30 H          -7.1905    0.8402   -0.6703 H       1  UNL1        0.0232
     31 H          -5.3267    1.6553    0.6323 H       1  UNL1        0.0299
     32 H          -5.7298   -0.8131    2.1897 H       1  UNL1        0.0268
     33 H          -5.0310    0.6416    2.7123 H       1  UNL1        0.0268
     34 H          -3.3145   -1.3289    2.2253 H       1  UNL1        0.0284
     35 H          -2.8591    0.0828    1.4627 H       1  UNL1        0.0284
     36 H          -4.7277   -2.1176    0.2985 H       1  UNL1        0.0540
     37 H          -2.7172    0.0404   -2.7660 H       1  UNL1        0.0636
     38 H          -1.1216    1.7354   -3.3748 H       1  UNL1        0.0618
     39 H           0.9146    1.9856   -2.1369 H       1  UNL1        0.0625
     40 H           2.4886   -1.3241   -0.2284 H       1  UNL1        0.1290
     41 H           7.5807   -0.3706   -1.0137 H       1  UNL1        0.0639
     42 H           9.6371    0.3420   -0.0096 H       1  UNL1        0.0619
     43 H           9.6364    1.2004    2.2414 H       1  UNL1        0.0633
     44 H           7.5630    1.3385    3.4753 H       1  UNL1        0.0830
     45 H          -0.1971   -1.1458    0.3407 H       1  UNL1        0.0644
     46 H          -3.9640    0.5466   -0.9334 H       1  UNL1        0.0286
     47 H          -5.3231   -0.3955   -1.3535 H       1  UNL1        0.0286
@<TRIPOS>UNITY_ATOM_ATTR
17 1
charge -1
@<TRIPOS>BOND
     1     1     2    1
     2     2     3    1
     3     2    27    1
     4     3     4    1
     5     4     5    1
     6     5     6    1
     7     5    27    1
     8     6     7    2
     9     6     8    2
    10     6     9    1
    11     9    10   ar
    12     9    26   ar
    13    10    11   ar
    14    11    12   ar
    15    12    13   ar
    16    13    14    1
    17    13    26   ar
    18    14    15    2
    19    14    16   am
    20    16    17    1
    21    17    18    1
    22    18    19    2
    23    18    20    1
    24    20    21   ar
    25    20    25   ar
    26    21    22   ar
    27    22    23   ar
    28    23    24   ar
    29    24    25   ar
    30     1    28    1
    31     1    29    1
    32     1    30    1
    33     2    31    1
    34     3    32    1
    35     3    33    1
    36     4    34    1
    37     4    35    1
    38     5    36    1
    39    10    37    1
    40    11    38    1
    41    12    39    1
    42    16    40    1
    43    21    41    1
    44    22    42    1
    45    23    43    1
    46    24    44    1
    47    26    45    1
    48    27    46    1
    49    27    47    1
@<TRIPOS>MOLECULE
../data/bude_mols_rdkit_confs_charged/molecule_87.pdb
 47 49 0 0 0
SMALL
GASTEIGER

@<TRIPOS>ATOM
      1  C1        -7.2210   -1.2150   -0.6360 C.3     1  UNL1       -0.0624
      2  C2        -5.9490   -0.4660   -0.4110 C.3     1  UNL1       -0.0421
      3  C3        -5.9830    0.3330    0.9030 C.3     1  UNL1       -0.0487
      4  C4        -4.5250    0.8240    0.8980 C.3     1  UNL1       -0.0301
      5  C5        -3.7370   -0.3620    0.4700 C.3     1  UNL1        0.0822
      6  S1        -2.5850   -0.0030   -0.8520 S.O2    1  UNL1       -0.0002
      7  O1        -1.9550   -1.3210   -1.2730 O.2     1  UNL1       -0.1691
      8  O2        -3.2910    0.5530   -2.0420 O.2     1  UNL1       -0.1691
      9  C6        -1.2830    1.0210   -0.2850 C.ar    1  UNL1        0.0892
     10  C7        -1.5370    2.3710   -0.1720 C.ar    1  UNL1       -0.0368
     11  C8        -0.5140    3.2050    0.2570 C.ar    1  UNL1       -0.0592
     12  C9         0.7290    2.7030    0.5650 C.ar    1  UNL1       -0.0496
     13  C10        0.9510    1.3310    0.4380 C.ar    1  UNL1        0.0374
     14  C11        2.2910    0.8610    0.7620 C.2     1  UNL1        0.2305
     15  O3         3.0860    1.5370    1.4350 O.2     1  UNL1       -0.2714
     16  N1         2.7120   -0.4180    0.2920 N.am    1  UNL1       -0.3921
     17  N2         4.0160   -0.8550    0.6080 N.am    1  UNL1       -0.5551
     18  C12        5.0820   -0.6890   -0.3180 C.2     1  UNL1        0.1081
     19  O4         4.8110   -0.2960   -1.4760 O.2     1  UNL1       -0.3106
     20  C13        6.4730   -0.9630    0.0430 C.ar    1  UNL1        0.0884
     21  C14        7.4490   -0.7680   -0.9140 C.ar    1  UNL1       -0.0344
     22  C15        8.7700   -1.0100   -0.6120 C.ar    1  UNL1       -0.0583
     23  C16        9.0700   -1.4470    0.6590 C.ar    1  UNL1       -0.0436
     24  C17        8.0790   -1.6310    1.5870 C.ar    1  UNL1        0.0283
     25  N3         6.7860   -1.3790    1.2500 N.ar    1  UNL1       -0.2536
     26  C18       -0.0250    0.4870    0.0230 C.ar    1  UNL1       -0.0248
     27  C19       -4.7480   -1.3470   -0.1480 C.3     1  UNL1       -0.0277
     28 H          -8.0165   -0.5218   -0.8137 H       1  UNL1        0.0232
     29 H          -7.4467   -1.8027    0.2292 H       1  UNL1        0.0232
     30 H          -7.1114   -1.8573   -1.4848 H       1  UNL1        0.0232
     31 H          -5.8673    0.1113   -1.3082 H       1  UNL1        0.0299
     32 H          -6.1983   -0.2870    1.7481 H       1  UNL1        0.0268
     33 H          -6.7327    1.0935    0.9690 H       1  UNL1        0.0268
     34 H          -4.2293    1.1423    1.8758 H       1  UNL1        0.0284
     35 H          -4.3799    1.6648    0.2523 H       1  UNL1        0.0284
     36 H          -3.1954   -0.7204    1.3204 H       1  UNL1        0.0540
     37 H          -2.4677    2.7533   -0.4014 H       1  UNL1        0.0636
     38 H          -0.6887    4.2182    0.3464 H       1  UNL1        0.0618
     39 H           1.4841    3.3298    0.8844 H       1  UNL1        0.0625
     40 H           2.1068   -0.9830   -0.2406 H       1  UNL1        0.1290
     41 H           7.1877   -0.4403   -1.8571 H       1  UNL1        0.0639
     42 H           9.5117   -0.8685   -1.3155 H       1  UNL1        0.0619
     43 H          10.0513   -1.6378    0.9151 H       1  UNL1        0.0633
     44 H           8.3127   -1.9592    2.5371 H       1  UNL1        0.0830
     45 H           0.1544   -0.5255   -0.0641 H       1  UNL1        0.0644
     46 H          -4.3712   -1.7677   -1.0568 H       1  UNL1        0.0286
     47 H          -4.9646   -2.1849    0.4812 H       1  UNL1        0.0286
@<TRIPOS>UNITY_ATOM_ATTR
17 1
charge -1
@<TRIPOS>BOND
     1     1     2    1
     2     2     3    1
     3     2    27    1
     4     3     4    1
     5     4     5    1
     6     5     6    1
     7     5    27    1
     8     6     7    2
     9     6     8    2
    10     6     9    1
    11     9    10   ar
    12     9    26   ar
    13    10    11   ar
    14    11    12   ar
    15    12    13   ar
    16    13    14    1
    17    13    26   ar
    18    14    15    2
    19    14    16   am
    20    16    17    1
    21    17    18    1
    22    18    19    2
    23    18    20    1
    24    20    21   ar
    25    20    25   ar
    26    21    22   ar
    27    22    23   ar
    28    23    24   ar
    29    24    25   ar
    30     1    28    1
    31     1    29    1
    32     1    30    1
    33     2    31    1
    34     3    32    1
    35     3    33    1
    36     4    34    1
    37     4    35    1
    38     5    36    1
    39    10    37    1
    40    11    38    1
    41    12    39    1
    42    16    40    1
    43    21    41    1
    44    22    42    1
    45    23    43    1
    46    24    44    1
    47    26    45    1
    48    27    46    1
    49    27    47    1
@<TRIPOS>MOLECULE
../data/bude_mols_rdkit_confs_charged/molecule_87.pdb
 47 49 0 0 0
SMALL
GASTEIGER

@<TRIPOS>ATOM
      1  C1        -7.1590   -0.6540   -0.2240 C.3     1  UNL1       -0.0624
      2  C2        -5.7120   -0.3100   -0.4120 C.3     1  UNL1       -0.0421
      3  C3        -5.2150    0.6600    0.6160 C.3     1  UNL1       -0.0487
      4  C4        -4.1520   -0.0570    1.3620 C.3     1  UNL1       -0.0301
      5  C5        -3.5460   -1.0070    0.3480 C.3     1  UNL1        0.0822
      6  S1        -2.5850   -0.1870   -0.8630 S.O2    1  UNL1       -0.0002
      7  O1        -3.3960    0.8000   -1.6530 O.2     1  UNL1       -0.1691
      8  O2        -2.1020   -1.2250   -1.8380 O.2     1  UNL1       -0.1691
      9  C6        -1.1780    0.5920   -0.1770 C.ar    1  UNL1        0.0892
     10  C7        -1.3560    1.8950    0.2990 C.ar    1  UNL1       -0.0368
     11  C8        -0.2680    2.5510    0.8290 C.ar    1  UNL1       -0.0592
     12  C9         0.9600    1.9270    0.8840 C.ar    1  UNL1       -0.0496
     13  C10        1.1570    0.6230    0.4130 C.ar    1  UNL1        0.0374
     14  C11        2.4750    0.0240    0.4780 C.2     1  UNL1        0.2305
     15  O3         3.4560    0.8070    0.5600 O.2     1  UNL1       -0.2714
     16  N1         2.7320   -1.3650    0.4570 N.am    1  UNL1       -0.3921
     17  N2         4.0580   -1.8590    0.5230 N.am    1  UNL1       -0.5551
     18  C12        4.9170   -1.5710   -0.5570 C.2     1  UNL1        0.1081
     19  O4         4.6910   -2.0140   -1.7110 O.2     1  UNL1       -0.3106
     20  C13        6.1110   -0.7360   -0.3560 C.ar    1  UNL1        0.0884
     21  C14        6.9590   -0.4440   -1.3880 C.ar    1  UNL1       -0.0344
     22  C15        8.0880    0.3380   -1.2270 C.ar    1  UNL1       -0.0583
     23  C16        8.3410    0.8280    0.0340 C.ar    1  UNL1       -0.0436
     24  C17        7.4840    0.5280    1.0600 C.ar    1  UNL1        0.0283
     25  N3         6.3910   -0.2340    0.8810 N.ar    1  UNL1       -0.2536
     26  C18        0.0540   -0.0210   -0.1160 C.ar    1  UNL1       -0.0248
     27  C19       -4.8170   -1.5310   -0.3060 C.3     1  UNL1       -0.0277
     28 H          -7.7503    0.2339   -0.3066 H       1  UNL1        0.0232
     29 H          -7.2997   -1.0874    0.7441 H       1  UNL1        0.0232
     30 H          -7.4597   -1.3540   -0.9753 H       1  UNL1        0.0232
     31 H          -5.6634    0.1193   -1.3909 H       1  UNL1        0.0299
     32 H          -6.0080    0.9433    1.2761 H       1  UNL1        0.0268
     33 H          -4.8456    1.5579    0.1664 H       1  UNL1        0.0268
     34 H          -4.5684   -0.5989    2.1853 H       1  UNL1        0.0284
     35 H          -3.4260    0.6113    1.7758 H       1  UNL1        0.0284
     36 H          -2.8870   -1.7290    0.7832 H       1  UNL1        0.0540
     37 H          -2.2797    2.3531    0.2540 H       1  UNL1        0.0636
     38 H          -0.3720    3.5135    1.1865 H       1  UNL1        0.0618
     39 H           1.7613    2.4382    1.2859 H       1  UNL1        0.0625
     40 H           1.9801   -1.9976    0.3957 H       1  UNL1        0.1290
     41 H           6.7480   -0.8224   -2.3247 H       1  UNL1        0.0639
     42 H           8.7151    0.5457   -2.0198 H       1  UNL1        0.0619
     43 H           9.1706    1.4174    0.2055 H       1  UNL1        0.0633
     44 H           7.6842    0.8994    2.0018 H       1  UNL1        0.0830
     45 H           0.1561   -0.9837   -0.4736 H       1  UNL1        0.0644
     46 H          -4.6071   -1.9329   -1.2752 H       1  UNL1        0.0286
     47 H          -5.2691   -2.3231    0.2535 H       1  UNL1        0.0286
@<TRIPOS>UNITY_ATOM_ATTR
17 1
charge -1
@<TRIPOS>BOND
     1     1     2    1
     2     2     3    1
     3     2    27    1
     4     3     4    1
     5     4     5    1
     6     5     6    1
     7     5    27    1
     8     6     7    2
     9     6     8    2
    10     6     9    1
    11     9    10   ar
    12     9    26   ar
    13    10    11   ar
    14    11    12   ar
    15    12    13   ar
    16    13    14    1
    17    13    26   ar
    18    14    15    2
    19    14    16   am
    20    16    17    1
    21    17    18    1
    22    18    19    2
    23    18    20    1
    24    20    21   ar
    25    20    25   ar
    26    21    22   ar
    27    22    23   ar
    28    23    24   ar
    29    24    25   ar
    30     1    28    1
    31     1    29    1
    32     1    30    1
    33     2    31    1
    34     3    32    1
    35     3    33    1
    36     4    34    1
    37     4    35    1
    38     5    36    1
    39    10    37    1
    40    11    38    1
    41    12    39    1
    42    16    40    1
    43    21    41    1
    44    22    42    1
    45    23    43    1
    46    24    44    1
    47    26    45    1
    48    27    46    1
    49    27    47    1
@<TRIPOS>MOLECULE
../data/bude_mols_rdkit_confs_charged/molecule_87.pdb
 47 49 0 0 0
SMALL
GASTEIGER

@<TRIPOS>ATOM
      1  C1        -6.8040    1.2620   -0.6050 C.3     1  UNL1       -0.0624
      2  C2        -5.7080    0.3020   -0.1840 C.3     1  UNL1       -0.0421
      3  C3        -5.9010   -1.0470   -0.7840 C.3     1  UNL1       -0.0487
      4  C4        -4.8130   -1.2000   -1.8030 C.3     1  UNL1       -0.0301
      5  C5        -3.6720   -0.3950   -1.2620 C.3     1  UNL1        0.0822
      6  S1        -2.7250   -1.3820   -0.1450 S.O2    1  UNL1       -0.0002
      7  O1        -2.1070   -2.4920   -0.9990 O.2     1  UNL1       -0.1691
      8  O2        -3.5750   -2.0880    0.8710 O.2     1  UNL1       -0.1691
      9  C6        -1.4400   -0.5310    0.6150 C.ar    1  UNL1        0.0892
     10  C7        -1.6510    0.2410    1.7350 C.ar    1  UNL1       -0.0368
     11  C8        -0.5970    0.9020    2.3380 C.ar    1  UNL1       -0.0592
     12  C9         0.6920    0.8170    1.8490 C.ar    1  UNL1       -0.0496
     13  C10        0.9000    0.0430    0.7280 C.ar    1  UNL1        0.0374
     14  C11        2.2410   -0.0880    0.2020 C.2     1  UNL1        0.2305
     15  O3         2.6650    0.7360   -0.6350 O.2     1  UNL1       -0.2714
     16  N1         3.0940   -1.1350    0.6150 N.am    1  UNL1       -0.3921
     17  N2         4.3850   -1.3570    0.1850 N.am    1  UNL1       -0.5551
     18  C12        5.1420   -0.5400   -0.6490 C.2     1  UNL1        0.1081
     19  O4         4.7510   -0.2980   -1.8160 O.2     1  UNL1       -0.3106
     20  C13        6.4010    0.0430   -0.1820 C.ar    1  UNL1        0.0884
     21  C14        7.1780    0.8400   -1.0010 C.ar    1  UNL1       -0.0344
     22  C15        8.3670    1.3560   -0.5280 C.ar    1  UNL1       -0.0583
     23  C16        8.7600    1.0650    0.7640 C.ar    1  UNL1       -0.0436
     24  C17        7.9600    0.2690    1.5460 C.ar    1  UNL1        0.0283
     25  N3         6.8060   -0.2340    1.0910 N.ar    1  UNL1       -0.2536
     26  C18       -0.1600   -0.6170    0.1270 C.ar    1  UNL1       -0.0248
     27  C19       -4.3540    0.7640   -0.5840 C.3     1  UNL1       -0.0277
     28 H          -7.7529    0.8794   -0.2918 H       1  UNL1        0.0232
     29 H          -6.7959    1.3678   -1.6697 H       1  UNL1        0.0232
     30 H          -6.6365    2.2161   -0.1505 H       1  UNL1        0.0232
     31 H          -5.7745    0.2593    0.8831 H       1  UNL1        0.0299
     32 H          -6.8612   -1.1130   -1.2514 H       1  UNL1        0.0268
     33 H          -5.8577   -1.8175   -0.0429 H       1  UNL1        0.0268
     34 H          -5.1279   -0.8185   -2.7518 H       1  UNL1        0.0284
     35 H          -4.5473   -2.2242   -1.9619 H       1  UNL1        0.0284
     36 H          -2.9759   -0.0596   -2.0022 H       1  UNL1        0.0540
     37 H          -2.6018    0.3269    2.1270 H       1  UNL1        0.0636
     38 H          -0.7784    1.4750    3.1770 H       1  UNL1        0.0618
     39 H           1.4713    1.3152    2.3067 H       1  UNL1        0.0625
     40 H           2.7310   -1.7689    1.2751 H       1  UNL1        0.1290
     41 H           6.8698    1.0486   -1.9636 H       1  UNL1        0.0639
     42 H           8.9551    1.9516   -1.1316 H       1  UNL1        0.0619
     43 H           9.6452    1.4418    1.1373 H       1  UNL1        0.0633
     44 H           8.2564    0.0527    2.5106 H       1  UNL1        0.0830
     45 H           0.0183   -1.1902   -0.7124 H       1  UNL1        0.0644
     46 H          -3.7980    1.0624    0.2801 H       1  UNL1        0.0286
     47 H          -4.4180    1.6055   -1.2418 H       1  UNL1        0.0286
@<TRIPOS>UNITY_ATOM_ATTR
17 1
charge -1
@<TRIPOS>BOND
     1     1     2    1
     2     2     3    1
     3     2    27    1
     4     3     4    1
     5     4     5    1
     6     5     6    1
     7     5    27    1
     8     6     7    2
     9     6     8    2
    10     6     9    1
    11     9    10   ar
    12     9    26   ar
    13    10    11   ar
    14    11    12   ar
    15    12    13   ar
    16    13    14    1
    17    13    26   ar
    18    14    15    2
    19    14    16   am
    20    16    17    1
    21    17    18    1
    22    18    19    2
    23    18    20    1
    24    20    21   ar
    25    20    25   ar
    26    21    22   ar
    27    22    23   ar
    28    23    24   ar
    29    24    25   ar
    30     1    28    1
    31     1    29    1
    32     1    30    1
    33     2    31    1
    34     3    32    1
    35     3    33    1
    36     4    34    1
    37     4    35    1
    38     5    36    1
    39    10    37    1
    40    11    38    1
    41    12    39    1
    42    16    40    1
    43    21    41    1
    44    22    42    1
    45    23    43    1
    46    24    44    1
    47    26    45    1
    48    27    46    1
    49    27    47    1
@<TRIPOS>MOLECULE
../data/bude_mols_rdkit_confs_charged/molecule_87.pdb
 47 49 0 0 0
SMALL
GASTEIGER

@<TRIPOS>ATOM
      1  C1        -7.2590   -0.1760    0.8840 C.3     1  UNL1       -0.0624
      2  C2        -5.7750    0.0890    1.0410 C.3     1  UNL1       -0.0421
      3  C3        -4.9500   -1.1260    0.7980 C.3     1  UNL1       -0.0487
      4  C4        -3.5900   -0.5350    0.3870 C.3     1  UNL1       -0.0301
      5  C5        -4.0790    0.5280   -0.5990 C.3     1  UNL1        0.0822
      6  S1        -2.8310    1.6830   -1.0360 S.O2    1  UNL1       -0.0002
      7  O1        -2.6010    2.6670    0.0800 O.2     1  UNL1       -0.1691
      8  O2        -3.2950    2.5220   -2.2220 O.2     1  UNL1       -0.1691
      9  C6        -1.3530    0.8910   -1.4850 C.ar    1  UNL1        0.0892
     10  C7        -1.3280    0.1140   -2.6280 C.ar    1  UNL1       -0.0368
     11  C8        -0.1700   -0.5030   -3.0450 C.ar    1  UNL1       -0.0592
     12  C9         0.9910   -0.3260   -2.2820 C.ar    1  UNL1       -0.0496
     13  C10        0.9950    0.4410   -1.1400 C.ar    1  UNL1        0.0374
     14  C11        2.2220    0.6850   -0.3740 C.2     1  UNL1        0.2305
     15  O3         2.2240    0.7250    0.8560 O.2     1  UNL1       -0.2714
     16  N1         3.4640    0.8870   -1.0760 N.am    1  UNL1       -0.3921
     17  N2         4.6910    1.1280   -0.5130 N.am    1  UNL1       -0.5551
     18  C12        5.1020    1.0400    0.8020 C.2     1  UNL1        0.1081
     19  O4         4.5200    1.6560    1.7100 O.2     1  UNL1       -0.3106
     20  C13        6.2610    0.1860    1.0980 C.ar    1  UNL1        0.0884
     21  C14        6.6940    0.0980    2.4020 C.ar    1  UNL1       -0.0344
     22  C15        7.7980   -0.7060    2.6700 C.ar    1  UNL1       -0.0583
     23  C16        8.4270   -1.3840    1.6490 C.ar    1  UNL1       -0.0436
     24  C17        7.9450   -1.2540    0.3660 C.ar    1  UNL1        0.0283
     25  N3         6.8880   -0.4830    0.1220 N.ar    1  UNL1       -0.2536
     26  C18       -0.1760    1.0430   -0.7480 C.ar    1  UNL1       -0.0248
     27  C19       -5.3000    1.1020    0.0180 C.3     1  UNL1       -0.0277
     28 H          -7.5726   -0.8923    1.6144 H       1  UNL1        0.0232
     29 H          -7.4512   -0.5588   -0.0965 H       1  UNL1        0.0232
     30 H          -7.8009    0.7361    1.0233 H       1  UNL1        0.0232
     31 H          -5.6558    0.4339    2.0469 H       1  UNL1        0.0299
     32 H          -5.3644   -1.7230    0.0127 H       1  UNL1        0.0268
     33 H          -4.8916   -1.7761    1.6459 H       1  UNL1        0.0268
     34 H          -2.9628   -1.2620   -0.0852 H       1  UNL1        0.0284
     35 H          -2.9838   -0.1728    1.1909 H       1  UNL1        0.0284
     36 H          -4.3235    0.1154   -1.5555 H       1  UNL1        0.0540
     37 H          -2.1927   -0.0057   -3.1785 H       1  UNL1        0.0636
     38 H          -0.1578   -1.0820   -3.8992 H       1  UNL1        0.0618
     39 H           1.8658   -0.7826   -2.5842 H       1  UNL1        0.0625
     40 H           3.4281    0.8481   -2.0591 H       1  UNL1        0.1290
     41 H           6.2147    0.6124    3.1574 H       1  UNL1        0.0639
     42 H           8.1467   -0.7946    3.6372 H       1  UNL1        0.0619
     43 H           9.2468   -1.9801    1.8429 H       1  UNL1        0.0633
     44 H           8.4050   -1.7562   -0.4094 H       1  UNL1        0.0830
     45 H          -0.1864    1.6191    0.1082 H       1  UNL1        0.0644
     46 H          -5.0719    2.0320    0.4955 H       1  UNL1        0.0286
     47 H          -6.0533    1.2958   -0.7168 H       1  UNL1        0.0286
@<TRIPOS>UNITY_ATOM_ATTR
17 1
charge -1
@<TRIPOS>BOND
     1     1     2    1
     2     2     3    1
     3     2    27    1
     4     3     4    1
     5     4     5    1
     6     5     6    1
     7     5    27    1
     8     6     7    2
     9     6     8    2
    10     6     9    1
    11     9    10   ar
    12     9    26   ar
    13    10    11   ar
    14    11    12   ar
    15    12    13   ar
    16    13    14    1
    17    13    26   ar
    18    14    15    2
    19    14    16   am
    20    16    17    1
    21    17    18    1
    22    18    19    2
    23    18    20    1
    24    20    21   ar
    25    20    25   ar
    26    21    22   ar
    27    22    23   ar
    28    23    24   ar
    29    24    25   ar
    30     1    28    1
    31     1    29    1
    32     1    30    1
    33     2    31    1
    34     3    32    1
    35     3    33    1
    36     4    34    1
    37     4    35    1
    38     5    36    1
    39    10    37    1
    40    11    38    1
    41    12    39    1
    42    16    40    1
    43    21    41    1
    44    22    42    1
    45    23    43    1
    46    24    44    1
    47    26    45    1
    48    27    46    1
    49    27    47    1
@<TRIPOS>MOLECULE
../data/bude_mols_rdkit_confs_charged/molecule_87.pdb
 47 49 0 0 0
SMALL
GASTEIGER

@<TRIPOS>ATOM
      1  C1        -7.2380    1.2740    0.0100 C.3     1  UNL1       -0.0624
      2  C2        -5.7390    1.4810   -0.0410 C.3     1  UNL1       -0.0421
      3  C3        -5.0920    1.2200    1.2980 C.3     1  UNL1       -0.0487
      4  C4        -3.6320    0.9550    0.8700 C.3     1  UNL1       -0.0301
      5  C5        -3.8950   -0.0790   -0.1970 C.3     1  UNL1        0.0822
      6  S1        -2.5500   -0.4390   -1.2490 S.O2    1  UNL1       -0.0002
      7  O1        -3.0190   -1.3670   -2.3360 O.2     1  UNL1       -0.1691
      8  O2        -2.1530    0.8440   -1.9430 O.2     1  UNL1       -0.1691
      9  C6        -1.1830   -1.1430   -0.4210 C.ar    1  UNL1        0.0892
     10  C7        -1.3080   -2.4170    0.1310 C.ar    1  UNL1       -0.0368
     11  C8        -0.2350   -3.0130    0.7500 C.ar    1  UNL1       -0.0592
     12  C9         0.9770   -2.3700    0.8370 C.ar    1  UNL1       -0.0496
     13  C10        1.1430   -1.0850    0.2940 C.ar    1  UNL1        0.0374
     14  C11        2.4390   -0.4250    0.3710 C.2     1  UNL1        0.2305
     15  O3         3.4400   -1.0950    0.7240 O.2     1  UNL1       -0.2714
     16  N1         2.5690    0.9350    0.0570 N.am    1  UNL1       -0.3921
     17  N2         3.7810    1.6350    0.1020 N.am    1  UNL1       -0.5551
     18  C12        4.8600    1.3420   -0.7750 C.2     1  UNL1        0.1081
     19  O4         4.8030    1.6220   -1.9830 O.2     1  UNL1       -0.3106
     20  C13        6.0660    0.6930   -0.2470 C.ar    1  UNL1        0.0884
     21  C14        7.1230    0.3950   -1.0910 C.ar    1  UNL1       -0.0344
     22  C15        8.2450   -0.2160   -0.5830 C.ar    1  UNL1       -0.0583
     23  C16        8.3550   -0.5440    0.7450 C.ar    1  UNL1       -0.0436
     24  C17        7.2930   -0.2380    1.5670 C.ar    1  UNL1        0.0283
     25  N3         6.1900    0.3660    1.0490 N.ar    1  UNL1       -0.2536
     26  C18        0.0450   -0.5340   -0.3110 C.ar    1  UNL1       -0.0248
     27  C19       -5.0700    0.5260   -0.9840 C.3     1  UNL1       -0.0277
     28 H          -7.6717    1.9744    0.6928 H       1  UNL1        0.0232
     29 H          -7.4495    0.2779    0.3385 H       1  UNL1        0.0232
     30 H          -7.6521    1.4234   -0.9653 H       1  UNL1        0.0232
     31 H          -5.6152    2.4967   -0.3540 H       1  UNL1        0.0299
     32 H          -5.5207    0.3678    1.7826 H       1  UNL1        0.0268
     33 H          -5.2079    2.0129    2.0070 H       1  UNL1        0.0268
     34 H          -3.0413    0.5649    1.6724 H       1  UNL1        0.0284
     35 H          -3.0766    1.8143    0.5570 H       1  UNL1        0.0284
     36 H          -4.0929   -1.0318    0.2479 H       1  UNL1        0.0540
     37 H          -2.2102   -2.9149    0.0747 H       1  UNL1        0.0636
     38 H          -0.3408   -3.9563    1.1550 H       1  UNL1        0.0618
     39 H           1.7709   -2.8348    1.3047 H       1  UNL1        0.0625
     40 H           1.7598    1.4275   -0.2112 H       1  UNL1        0.1290
     41 H           7.0687    0.6300   -2.0944 H       1  UNL1        0.0639
     42 H           9.0277   -0.4344   -1.2192 H       1  UNL1        0.0619
     43 H           9.2023   -1.0031    1.1142 H       1  UNL1        0.0633
     44 H           7.3341   -0.4663    2.5726 H       1  UNL1        0.0830
     45 H           0.1469    0.4101   -0.7151 H       1  UNL1        0.0644
     46 H          -4.7124    1.0444   -1.8490 H       1  UNL1        0.0286
     47 H          -5.7459   -0.2287   -1.3282 H       1  UNL1        0.0286
@<TRIPOS>UNITY_ATOM_ATTR
17 1
charge -1
@<TRIPOS>BOND
     1     1     2    1
     2     2     3    1
     3     2    27    1
     4     3     4    1
     5     4     5    1
     6     5     6    1
     7     5    27    1
     8     6     7    2
     9     6     8    2
    10     6     9    1
    11     9    10   ar
    12     9    26   ar
    13    10    11   ar
    14    11    12   ar
    15    12    13   ar
    16    13    14    1
    17    13    26   ar
    18    14    15    2
    19    14    16   am
    20    16    17    1
    21    17    18    1
    22    18    19    2
    23    18    20    1
    24    20    21   ar
    25    20    25   ar
    26    21    22   ar
    27    22    23   ar
    28    23    24   ar
    29    24    25   ar
    30     1    28    1
    31     1    29    1
    32     1    30    1
    33     2    31    1
    34     3    32    1
    35     3    33    1
    36     4    34    1
    37     4    35    1
    38     5    36    1
    39    10    37    1
    40    11    38    1
    41    12    39    1
    42    16    40    1
    43    21    41    1
    44    22    42    1
    45    23    43    1
    46    24    44    1
    47    26    45    1
    48    27    46    1
    49    27    47    1
@<TRIPOS>MOLECULE
../data/bude_mols_rdkit_confs_charged/molecule_87.pdb
 47 49 0 0 0
SMALL
GASTEIGER

@<TRIPOS>ATOM
      1  C1        -6.7670    0.0580    0.6790 C.3     1  UNL1       -0.0624
      2  C2        -5.4310    0.4930    1.2880 C.3     1  UNL1       -0.0421
      3  C3        -4.6160   -0.7100    1.6560 C.3     1  UNL1       -0.0487
      4  C4        -3.8920   -1.0980    0.4090 C.3     1  UNL1       -0.0301
      5  C5        -4.2840   -0.0890   -0.6540 C.3     1  UNL1        0.0822
      6  S1        -2.9730    0.2330   -1.7960 S.O2    1  UNL1       -0.0002
      7  O1        -2.6990   -0.9880   -2.6240 O.2     1  UNL1       -0.1691
      8  O2        -3.4210    1.3440   -2.7260 O.2     1  UNL1       -0.1691
      9  C6        -1.5560    0.7570   -0.9220 C.ar    1  UNL1        0.0892
     10  C7        -1.3580    2.1040   -0.7200 C.ar    1  UNL1       -0.0368
     11  C8        -0.2450    2.5670   -0.0380 C.ar    1  UNL1       -0.0592
     12  C9         0.6880    1.6390    0.4470 C.ar    1  UNL1       -0.0496
     13  C10        0.5050    0.2890    0.2530 C.ar    1  UNL1        0.0374
     14  C11        1.4700   -0.6850    0.7400 C.2     1  UNL1        0.2305
     15  O3         1.0500   -1.8180    1.0970 O.2     1  UNL1       -0.2714
     16  N1         2.8550   -0.4310    0.8330 N.am    1  UNL1       -0.3921
     17  N2         3.8160   -1.3410    1.2890 N.am    1  UNL1       -0.5551
     18  C12        4.7990   -1.7230    0.3370 C.2     1  UNL1        0.1081
     19  O4         4.5070   -2.5850   -0.5370 O.2     1  UNL1       -0.3106
     20  C13        6.1380   -1.1740    0.3090 C.ar    1  UNL1        0.0884
     21  C14        7.0840   -1.5410   -0.6260 C.ar    1  UNL1       -0.0344
     22  C15        8.3510   -0.9700   -0.6010 C.ar    1  UNL1       -0.0583
     23  C16        8.7080   -0.0240    0.3520 C.ar    1  UNL1       -0.0436
     24  C17        7.7260    0.3100    1.2660 C.ar    1  UNL1        0.0283
     25  N3         6.5040   -0.2550    1.2240 N.ar    1  UNL1       -0.2536
     26  C18       -0.6090   -0.1480   -0.4270 C.ar    1  UNL1       -0.0248
     27  C19       -4.6410    1.1450    0.1820 C.3     1  UNL1       -0.0277
     28 H          -7.3653   -0.4127    1.4309 H       1  UNL1        0.0232
     29 H          -6.5875   -0.6328   -0.1182 H       1  UNL1        0.0232
     30 H          -7.2817    0.9155    0.2987 H       1  UNL1        0.0232
     31 H          -5.6179    1.1188    2.1355 H       1  UNL1        0.0299
     32 H          -5.2514   -1.5065    1.9827 H       1  UNL1        0.0268
     33 H          -3.9401   -0.5012    2.4588 H       1  UNL1        0.0268
     34 H          -4.1801   -2.0831    0.1066 H       1  UNL1        0.0284
     35 H          -2.8333   -1.1024    0.5640 H       1  UNL1        0.0284
     36 H          -5.0839   -0.4251   -1.2801 H       1  UNL1        0.0540
     37 H          -2.0493    2.7792   -1.0822 H       1  UNL1        0.0636
     38 H          -0.1045    3.5785    0.1109 H       1  UNL1        0.0618
     39 H           1.5218    1.9726    0.9555 H       1  UNL1        0.0625
     40 H           3.1712    0.4588    0.5545 H       1  UNL1        0.1290
     41 H           6.8500   -2.2419   -1.3464 H       1  UNL1        0.0639
     42 H           9.0450   -1.2563   -1.3091 H       1  UNL1        0.0619
     43 H           9.6474    0.4026    0.3760 H       1  UNL1        0.0633
     44 H           7.9339    1.0081    1.9971 H       1  UNL1        0.0830
     45 H          -0.7487   -1.1598   -0.5746 H       1  UNL1        0.0644
     46 H          -3.7677    1.6379    0.5552 H       1  UNL1        0.0286
     47 H          -5.1609    1.9143   -0.3498 H       1  UNL1        0.0286
@<TRIPOS>UNITY_ATOM_ATTR
17 1
charge -1
@<TRIPOS>BOND
     1     1     2    1
     2     2     3    1
     3     2    27    1
     4     3     4    1
     5     4     5    1
     6     5     6    1
     7     5    27    1
     8     6     7    2
     9     6     8    2
    10     6     9    1
    11     9    10   ar
    12     9    26   ar
    13    10    11   ar
    14    11    12   ar
    15    12    13   ar
    16    13    14    1
    17    13    26   ar
    18    14    15    2
    19    14    16   am
    20    16    17    1
    21    17    18    1
    22    18    19    2
    23    18    20    1
    24    20    21   ar
    25    20    25   ar
    26    21    22   ar
    27    22    23   ar
    28    23    24   ar
    29    24    25   ar
    30     1    28    1
    31     1    29    1
    32     1    30    1
    33     2    31    1
    34     3    32    1
    35     3    33    1
    36     4    34    1
    37     4    35    1
    38     5    36    1
    39    10    37    1
    40    11    38    1
    41    12    39    1
    42    16    40    1
    43    21    41    1
    44    22    42    1
    45    23    43    1
    46    24    44    1
    47    26    45    1
    48    27    46    1
    49    27    47    1
@<TRIPOS>MOLECULE
../data/bude_mols_rdkit_confs_charged/molecule_87.pdb
 47 49 0 0 0
SMALL
GASTEIGER

@<TRIPOS>ATOM
      1  C1        -5.8200    1.5490    1.1080 C.3     1  UNL1       -0.0624
      2  C2        -4.7690    0.6540    1.7030 C.3     1  UNL1       -0.0421
      3  C3        -4.9340   -0.7960    1.2060 C.3     1  UNL1       -0.0487
      4  C4        -4.4790   -0.6830   -0.2460 C.3     1  UNL1       -0.0301
      5  C5        -3.7990    0.6250   -0.4080 C.3     1  UNL1        0.0822
      6  S1        -2.3890    0.6580   -1.4350 S.O2    1  UNL1       -0.0002
      7  O1        -1.7100    2.0130   -1.2370 O.2     1  UNL1       -0.1691
      8  O2        -2.8310    0.6590   -2.8920 O.2     1  UNL1       -0.1691
      9  C6        -1.2350   -0.5860   -1.1770 C.ar    1  UNL1        0.0892
     10  C7        -1.4340   -1.8430   -1.7570 C.ar    1  UNL1       -0.0368
     11  C8        -0.5020   -2.8340   -1.5810 C.ar    1  UNL1       -0.0592
     12  C9         0.6380   -2.6150   -0.8360 C.ar    1  UNL1       -0.0496
     13  C10        0.8600   -1.4000   -0.2590 C.ar    1  UNL1        0.0374
     14  C11        2.0780   -1.1240    0.5340 C.2     1  UNL1        0.2305
     15  O3         2.1680   -0.2570    1.4110 O.2     1  UNL1       -0.2714
     16  N1         3.2410   -1.9200    0.2710 N.am    1  UNL1       -0.3921
     17  N2         4.4540   -1.8210    0.9060 N.am    1  UNL1       -0.5551
     18  C12        4.9230   -0.7590    1.6810 C.2     1  UNL1        0.1081
     19  O4         4.7610   -0.7030    2.9340 O.2     1  UNL1       -0.3106
     20  C13        5.6340    0.3210    0.9790 C.ar    1  UNL1        0.0884
     21  C14        6.1620    1.3750    1.6950 C.ar    1  UNL1       -0.0344
     22  C15        6.8570    2.3870    1.0320 C.ar    1  UNL1       -0.0583
     23  C16        7.0060    2.3210   -0.3200 C.ar    1  UNL1       -0.0436
     24  C17        6.4740    1.2640   -1.0180 C.ar    1  UNL1        0.0283
     25  N3         5.8140    0.3130   -0.3410 N.ar    1  UNL1       -0.2536
     26  C18       -0.0900   -0.4050   -0.4430 C.ar    1  UNL1       -0.0248
     27  C19       -3.4360    0.9860    1.0450 C.3     1  UNL1       -0.0277
     28 H          -6.7674    1.3334    1.5561 H       1  UNL1        0.0232
     29 H          -5.8775    1.3793    0.0531 H       1  UNL1        0.0232
     30 H          -5.5632    2.5714    1.2913 H       1  UNL1        0.0232
     31 H          -4.8326    0.7714    2.7646 H       1  UNL1        0.0299
     32 H          -5.9528   -1.1164    1.2710 H       1  UNL1        0.0268
     33 H          -4.3844   -1.5147    1.7773 H       1  UNL1        0.0268
     34 H          -5.3258   -0.7361   -0.8979 H       1  UNL1        0.0284
     35 H          -3.8128   -1.4834   -0.4921 H       1  UNL1        0.0284
     36 H          -4.4406    1.3141   -0.9163 H       1  UNL1        0.0540
     37 H          -2.2815   -2.0249   -2.3171 H       1  UNL1        0.0636
     38 H          -0.6563   -3.7584   -2.0130 H       1  UNL1        0.0618
     39 H           1.3261   -3.3745   -0.7148 H       1  UNL1        0.0625
     40 H           3.1621   -2.6037   -0.4330 H       1  UNL1        0.1290
     41 H           6.0432    1.4150    2.7194 H       1  UNL1        0.0639
     42 H           7.2546    3.1785    1.5615 H       1  UNL1        0.0619
     43 H           7.5182    3.0645   -0.8199 H       1  UNL1        0.0633
     44 H           6.5802    1.2031   -2.0427 H       1  UNL1        0.0830
     45 H           0.0728    0.5158   -0.0065 H       1  UNL1        0.0644
     46 H          -2.6385    0.3810    1.4231 H       1  UNL1        0.0286
     47 H          -3.0781    1.9825    1.1996 H       1  UNL1        0.0286
@<TRIPOS>UNITY_ATOM_ATTR
17 1
charge -1
@<TRIPOS>BOND
     1     1     2    1
     2     2     3    1
     3     2    27    1
     4     3     4    1
     5     4     5    1
     6     5     6    1
     7     5    27    1
     8     6     7    2
     9     6     8    2
    10     6     9    1
    11     9    10   ar
    12     9    26   ar
    13    10    11   ar
    14    11    12   ar
    15    12    13   ar
    16    13    14    1
    17    13    26   ar
    18    14    15    2
    19    14    16   am
    20    16    17    1
    21    17    18    1
    22    18    19    2
    23    18    20    1
    24    20    21   ar
    25    20    25   ar
    26    21    22   ar
    27    22    23   ar
    28    23    24   ar
    29    24    25   ar
    30     1    28    1
    31     1    29    1
    32     1    30    1
    33     2    31    1
    34     3    32    1
    35     3    33    1
    36     4    34    1
    37     4    35    1
    38     5    36    1
    39    10    37    1
    40    11    38    1
    41    12    39    1
    42    16    40    1
    43    21    41    1
    44    22    42    1
    45    23    43    1
    46    24    44    1
    47    26    45    1
    48    27    46    1
    49    27    47    1
@<TRIPOS>MOLECULE
../data/bude_mols_rdkit_confs_charged/molecule_87.pdb
 47 49 0 0 0
SMALL
GASTEIGER

@<TRIPOS>ATOM
      1  C1        -6.9700    0.4090   -0.8820 C.3     1  UNL1       -0.0624
      2  C2        -6.2850    0.3800    0.4520 C.3     1  UNL1       -0.0421
      3  C3        -6.1930   -1.0380    0.9680 C.3     1  UNL1       -0.0487
      4  C4        -5.1370   -1.6320    0.0930 C.3     1  UNL1       -0.0301
      5  C5        -4.1360   -0.4780   -0.0940 C.3     1  UNL1        0.0822
      6  S1        -2.7790   -0.7840    1.0290 S.O2    1  UNL1       -0.0002
      7  O1        -2.3580   -2.2140    0.9190 O.2     1  UNL1       -0.1691
      8  O2        -3.2620   -0.5070    2.4370 O.2     1  UNL1       -0.1691
      9  C6        -1.4720    0.2810    0.6230 C.ar    1  UNL1        0.0892
     10  C7        -1.5440    1.6390    0.8190 C.ar    1  UNL1       -0.0368
     11  C8        -0.4300    2.4070    0.4920 C.ar    1  UNL1       -0.0592
     12  C9         0.7140    1.8130   -0.0120 C.ar    1  UNL1       -0.0496
     13  C10        0.8020    0.4530   -0.2130 C.ar    1  UNL1        0.0374
     14  C11        2.0450   -0.1260   -0.7010 C.2     1  UNL1        0.2305
     15  O3         2.1510   -0.4530   -1.9110 O.2     1  UNL1       -0.2714
     16  N1         3.1630   -0.3460    0.1440 N.am    1  UNL1       -0.3921
     17  N2         4.3770   -0.8750   -0.1900 N.am    1  UNL1       -0.5551
     18  C12        5.3810   -0.2630   -0.9510 C.2     1  UNL1        0.1081
     19  O4         5.0860    0.5010   -1.9370 O.2     1  UNL1       -0.3106
     20  C13        6.7740   -0.4990   -0.6190 C.ar    1  UNL1        0.0884
     21  C14        7.7430    0.1170   -1.3780 C.ar    1  UNL1       -0.0344
     22  C15        9.0660   -0.0870   -1.0820 C.ar    1  UNL1       -0.0583
     23  C16        9.3980   -0.9040   -0.0290 C.ar    1  UNL1       -0.0436
     24  C17        8.4260   -1.5030    0.7100 C.ar    1  UNL1        0.0283
     25  N3         7.1120   -1.2970    0.4080 N.ar    1  UNL1       -0.2536
     26  C18       -0.2930   -0.2970    0.1060 C.ar    1  UNL1       -0.0248
     27  C19       -4.8180    0.7660    0.2940 C.3     1  UNL1       -0.0277
     28 H          -7.9978    0.1371   -0.7612 H       1  UNL1        0.0232
     29 H          -6.4930   -0.2841   -1.5430 H       1  UNL1        0.0232
     30 H          -6.9079    1.3948   -1.2935 H       1  UNL1        0.0232
     31 H          -6.8407    1.0334    1.0917 H       1  UNL1        0.0299
     32 H          -7.1243   -1.5523    0.8538 H       1  UNL1        0.0268
     33 H          -5.9661   -1.0984    2.0119 H       1  UNL1        0.0268
     34 H          -5.5467   -1.9392   -0.8465 H       1  UNL1        0.0284
     35 H          -4.6899   -2.5079    0.5146 H       1  UNL1        0.0284
     36 H          -3.7831   -0.4033   -1.1014 H       1  UNL1        0.0540
     37 H          -2.3986    2.0766    1.1974 H       1  UNL1        0.0636
     38 H          -0.4574    3.4298    0.6268 H       1  UNL1        0.0618
     39 H           1.5255    2.4068   -0.2442 H       1  UNL1        0.0625
     40 H           3.0499   -0.0854    1.0866 H       1  UNL1        0.1290
     41 H           7.4753    0.7286   -2.1650 H       1  UNL1        0.0639
     42 H           9.8031    0.3676   -1.6433 H       1  UNL1        0.0619
     43 H          10.3908   -1.0643    0.2028 H       1  UNL1        0.0633
     44 H           8.6831   -2.1144    1.5006 H       1  UNL1        0.0830
     45 H          -0.2575   -1.3187   -0.0353 H       1  UNL1        0.0644
     46 H          -4.4255    1.1377    1.2174 H       1  UNL1        0.0286
     47 H          -4.6825    1.5412   -0.4310 H       1  UNL1        0.0286
@<TRIPOS>UNITY_ATOM_ATTR
17 1
charge -1
@<TRIPOS>BOND
     1     1     2    1
     2     2     3    1
     3     2    27    1
     4     3     4    1
     5     4     5    1
     6     5     6    1
     7     5    27    1
     8     6     7    2
     9     6     8    2
    10     6     9    1
    11     9    10   ar
    12     9    26   ar
    13    10    11   ar
    14    11    12   ar
    15    12    13   ar
    16    13    14    1
    17    13    26   ar
    18    14    15    2
    19    14    16   am
    20    16    17    1
    21    17    18    1
    22    18    19    2
    23    18    20    1
    24    20    21   ar
    25    20    25   ar
    26    21    22   ar
    27    22    23   ar
    28    23    24   ar
    29    24    25   ar
    30     1    28    1
    31     1    29    1
    32     1    30    1
    33     2    31    1
    34     3    32    1
    35     3    33    1
    36     4    34    1
    37     4    35    1
    38     5    36    1
    39    10    37    1
    40    11    38    1
    41    12    39    1
    42    16    40    1
    43    21    41    1
    44    22    42    1
    45    23    43    1
    46    24    44    1
    47    26    45    1
    48    27    46    1
    49    27    47    1
@<TRIPOS>MOLECULE
../data/bude_mols_rdkit_confs_charged/molecule_87.pdb
 47 49 0 0 0
SMALL
GASTEIGER

@<TRIPOS>ATOM
      1  C1        -6.7220    0.2650   -0.5650 C.3     1  UNL1       -0.0624
      2  C2        -5.6130   -0.6460   -0.0830 C.3     1  UNL1       -0.0421
      3  C3        -4.7970   -1.2260   -1.2110 C.3     1  UNL1       -0.0487
      4  C4        -3.4950   -0.4200   -1.2680 C.3     1  UNL1       -0.0301
      5  C5        -3.8370    0.8220   -0.4730 C.3     1  UNL1        0.0822
      6  S1        -2.4450    1.7540    0.0490 S.O2    1  UNL1       -0.0002
      7  O1        -2.9590    2.8430    0.9670 O.2     1  UNL1       -0.1691
      8  O2        -1.7810    2.3560   -1.1660 O.2     1  UNL1       -0.1691
      9  C6        -1.2750    0.7580    0.8740 C.ar    1  UNL1        0.0892
     10  C7        -1.3840    0.5380    2.2520 C.ar    1  UNL1       -0.0368
     11  C8        -0.4210   -0.2280    2.8760 C.ar    1  UNL1       -0.0592
     12  C9         0.6300   -0.7690    2.1580 C.ar    1  UNL1       -0.0496
     13  C10        0.7650   -0.5710    0.7990 C.ar    1  UNL1        0.0374
     14  C11        1.8870   -1.1190    0.0490 C.2     1  UNL1        0.2305
     15  O3         1.7750   -1.3170   -1.2020 O.2     1  UNL1       -0.2714
     16  N1         3.1440   -1.4580    0.6280 N.am    1  UNL1       -0.3921
     17  N2         4.2240   -1.9730   -0.0550 N.am    1  UNL1       -0.5551
     18  C12        4.8810   -1.4130   -1.1580 C.2     1  UNL1        0.1081
     19  O4         4.5250   -1.7820   -2.3100 O.2     1  UNL1       -0.3106
     20  C13        5.9500   -0.4260   -0.9980 C.ar    1  UNL1        0.0884
     21  C14        6.5400    0.0670   -2.1410 C.ar    1  UNL1       -0.0344
     22  C15        7.5550    0.9960   -2.0760 C.ar    1  UNL1       -0.0583
     23  C16        7.9730    1.4270   -0.8430 C.ar    1  UNL1       -0.0436
     24  C17        7.3490    0.9000    0.2620 C.ar    1  UNL1        0.0283
     25  N3         6.3620   -0.0040    0.1980 N.ar    1  UNL1       -0.2536
     26  C18       -0.2030    0.1960    0.1850 C.ar    1  UNL1       -0.0248
     27  C19       -4.6020    0.1850    0.6850 C.3     1  UNL1       -0.0277
     28 H          -7.4433   -0.3082   -1.1091 H       1  UNL1        0.0232
     29 H          -6.3117    1.0198   -1.2028 H       1  UNL1        0.0232
     30 H          -7.1948    0.7273    0.2762 H       1  UNL1        0.0232
     31 H          -6.0922   -1.4178    0.4823 H       1  UNL1        0.0299
     32 H          -5.3281   -1.1356   -2.1355 H       1  UNL1        0.0268
     33 H          -4.6009   -2.2656   -1.0509 H       1  UNL1        0.0268
     34 H          -3.2377   -0.1735   -2.2769 H       1  UNL1        0.0284
     35 H          -2.6498   -0.9512   -0.8828 H       1  UNL1        0.0284
     36 H          -4.3784    1.5599   -1.0273 H       1  UNL1        0.0540
     37 H          -2.1678    0.9401    2.7896 H       1  UNL1        0.0636
     38 H          -0.4857   -0.3995    3.8916 H       1  UNL1        0.0618
     39 H           1.3344   -1.3378    2.6534 H       1  UNL1        0.0625
     40 H           3.2495   -1.3122    1.5959 H       1  UNL1        0.1290
     41 H           6.2158   -0.2656   -3.0625 H       1  UNL1        0.0639
     42 H           7.9918    1.3601   -2.9372 H       1  UNL1        0.0619
     43 H           8.7295    2.1226   -0.7484 H       1  UNL1        0.0633
     44 H           7.6579    1.2184    1.1938 H       1  UNL1        0.0830
     45 H          -0.1296    0.3610   -0.8311 H       1  UNL1        0.0644
     46 H          -3.9661   -0.4258    1.2912 H       1  UNL1        0.0286
     47 H          -5.0276    0.8809    1.3775 H       1  UNL1        0.0286
@<TRIPOS>UNITY_ATOM_ATTR
17 1
charge -1
@<TRIPOS>BOND
     1     1     2    1
     2     2     3    1
     3     2    27    1
     4     3     4    1
     5     4     5    1
     6     5     6    1
     7     5    27    1
     8     6     7    2
     9     6     8    2
    10     6     9    1
    11     9    10   ar
    12     9    26   ar
    13    10    11   ar
    14    11    12   ar
    15    12    13   ar
    16    13    14    1
    17    13    26   ar
    18    14    15    2
    19    14    16   am
    20    16    17    1
    21    17    18    1
    22    18    19    2
    23    18    20    1
    24    20    21   ar
    25    20    25   ar
    26    21    22   ar
    27    22    23   ar
    28    23    24   ar
    29    24    25   ar
    30     1    28    1
    31     1    29    1
    32     1    30    1
    33     2    31    1
    34     3    32    1
    35     3    33    1
    36     4    34    1
    37     4    35    1
    38     5    36    1
    39    10    37    1
    40    11    38    1
    41    12    39    1
    42    16    40    1
    43    21    41    1
    44    22    42    1
    45    23    43    1
    46    24    44    1
    47    26    45    1
    48    27    46    1
    49    27    47    1
@<TRIPOS>MOLECULE
../data/bude_mols_rdkit_confs_charged/molecule_87.pdb
 47 49 0 0 0
SMALL
GASTEIGER

@<TRIPOS>ATOM
      1  C1        -5.0430   -1.6670   -1.3610 C.3     1  UNL1       -0.0624
      2  C2        -4.8200   -0.2960   -0.7770 C.3     1  UNL1       -0.0421
      3  C3        -6.0610    0.2980   -0.1530 C.3     1  UNL1       -0.0487
      4  C4        -5.4820    1.4230    0.6790 C.3     1  UNL1       -0.0301
      5  C5        -4.0590    1.0320    0.9990 C.3     1  UNL1        0.0822
      6  S1        -2.8840    2.1810    0.3480 S.O2    1  UNL1       -0.0002
      7  O1        -2.9430    2.2640   -1.1530 O.2     1  UNL1       -0.1691
      8  O2        -3.1020    3.5270    0.9440 O.2     1  UNL1       -0.1691
      9  C6        -1.2780    1.6200    0.7750 C.ar    1  UNL1        0.0892
     10  C7        -0.8280    1.8830    2.0560 C.ar    1  UNL1       -0.0368
     11  C8         0.4200    1.4750    2.4480 C.ar    1  UNL1       -0.0592
     12  C9         1.2270    0.7990    1.5570 C.ar    1  UNL1       -0.0496
     13  C10        0.8020    0.5220    0.2700 C.ar    1  UNL1        0.0374
     14  C11        1.7000   -0.2090   -0.6390 C.2     1  UNL1        0.2305
     15  O3         1.6610   -0.0050   -1.8630 O.2     1  UNL1       -0.2714
     16  N1         2.6150   -1.1480   -0.1000 N.am    1  UNL1       -0.3921
     17  N2         3.5050   -1.8670   -0.9050 N.am    1  UNL1       -0.5551
     18  C12        4.8580   -2.0280   -0.4400 C.2     1  UNL1        0.1081
     19  O4         5.1540   -3.0420    0.1920 O.2     1  UNL1       -0.3106
     20  C13        5.8010   -0.9940   -0.7370 C.ar    1  UNL1        0.0884
     21  C14        7.1120   -1.1100   -0.2950 C.ar    1  UNL1       -0.0344
     22  C15        8.0320   -0.1390   -0.5640 C.ar    1  UNL1       -0.0583
     23  C16        7.6390    0.9880   -1.2970 C.ar    1  UNL1       -0.0436
     24  C17        6.3280    1.0840   -1.7270 C.ar    1  UNL1        0.0283
     25  N3         5.4950    0.0930   -1.4230 N.ar    1  UNL1       -0.2536
     26  C18       -0.4540    0.9480   -0.0820 C.ar    1  UNL1       -0.0248
     27  C19       -3.8900   -0.3490    0.4300 C.3     1  UNL1       -0.0277
     28 H          -5.6982   -1.5934   -2.2037 H       1  UNL1        0.0232
     29 H          -5.4833   -2.3025   -0.6213 H       1  UNL1        0.0232
     30 H          -4.1058   -2.0786   -1.6727 H       1  UNL1        0.0232
     31 H          -4.4534    0.2663   -1.6102 H       1  UNL1        0.0299
     32 H          -6.5697   -0.4172    0.4591 H       1  UNL1        0.0268
     33 H          -6.7929    0.6182   -0.8648 H       1  UNL1        0.0268
     34 H          -6.0443    1.5423    1.5815 H       1  UNL1        0.0284
     35 H          -5.5180    2.3528    0.1507 H       1  UNL1        0.0284
     36 H          -3.8773    1.0428    2.0534 H       1  UNL1        0.0540
     37 H          -1.4350    2.3889    2.7198 H       1  UNL1        0.0636
     38 H           0.7541    1.6724    3.4043 H       1  UNL1        0.0618
     39 H           2.1663    0.4938    1.8563 H       1  UNL1        0.0625
     40 H           2.6245   -1.2991    0.8728 H       1  UNL1        0.1290
     41 H           7.3948   -1.9428    0.2449 H       1  UNL1        0.0639
     42 H           9.0045   -0.2337   -0.2318 H       1  UNL1        0.0619
     43 H           8.3173    1.7353   -1.5129 H       1  UNL1        0.0633
     44 H           6.0054    1.9013   -2.2683 H       1  UNL1        0.0830
     45 H          -0.7911    0.7517   -1.0374 H       1  UNL1        0.0644
     46 H          -2.8772   -0.5292    0.1355 H       1  UNL1        0.0286
     47 H          -4.1146   -1.1356    1.1197 H       1  UNL1        0.0286
@<TRIPOS>UNITY_ATOM_ATTR
17 1
charge -1
@<TRIPOS>BOND
     1     1     2    1
     2     2     3    1
     3     2    27    1
     4     3     4    1
     5     4     5    1
     6     5     6    1
     7     5    27    1
     8     6     7    2
     9     6     8    2
    10     6     9    1
    11     9    10   ar
    12     9    26   ar
    13    10    11   ar
    14    11    12   ar
    15    12    13   ar
    16    13    14    1
    17    13    26   ar
    18    14    15    2
    19    14    16   am
    20    16    17    1
    21    17    18    1
    22    18    19    2
    23    18    20    1
    24    20    21   ar
    25    20    25   ar
    26    21    22   ar
    27    22    23   ar
    28    23    24   ar
    29    24    25   ar
    30     1    28    1
    31     1    29    1
    32     1    30    1
    33     2    31    1
    34     3    32    1
    35     3    33    1
    36     4    34    1
    37     4    35    1
    38     5    36    1
    39    10    37    1
    40    11    38    1
    41    12    39    1
    42    16    40    1
    43    21    41    1
    44    22    42    1
    45    23    43    1
    46    24    44    1
    47    26    45    1
    48    27    46    1
    49    27    47    1
@<TRIPOS>MOLECULE
../data/bude_mols_rdkit_confs_charged/molecule_87.pdb
 47 49 0 0 0
SMALL
GASTEIGER

@<TRIPOS>ATOM
      1  C1        -6.3350    0.6890   -1.2550 C.3     1  UNL1       -0.0624
      2  C2        -5.4110    0.2130   -0.1620 C.3     1  UNL1       -0.0421
      3  C3        -5.5100   -1.2730    0.0500 C.3     1  UNL1       -0.0487
      4  C4        -4.3350   -1.8150   -0.7250 C.3     1  UNL1       -0.0301
      5  C5        -3.2440   -0.7870   -0.4230 C.3     1  UNL1        0.0822
      6  S1        -2.6600   -0.9080    1.2310 S.O2    1  UNL1       -0.0002
      7  O1        -2.2620   -2.3220    1.5800 O.2     1  UNL1       -0.1691
      8  O2        -3.7120   -0.4770    2.2340 O.2     1  UNL1       -0.1691
      9  C6        -1.3060    0.1640    1.4570 C.ar    1  UNL1        0.0892
     10  C7        -1.4880    1.4720    1.8120 C.ar    1  UNL1       -0.0368
     11  C8        -0.4220    2.3210    2.0250 C.ar    1  UNL1       -0.0592
     12  C9         0.8660    1.8120    1.8700 C.ar    1  UNL1       -0.0496
     13  C10        1.0930    0.4820    1.5080 C.ar    1  UNL1        0.0374
     14  C11        2.4440   -0.0430    1.3960 C.2     1  UNL1        0.2305
     15  O3         3.3770    0.5410    2.0420 O.2     1  UNL1       -0.2714
     16  N1         2.7100   -1.1800    0.5900 N.am    1  UNL1       -0.3921
     17  N2         3.9750   -1.7220    0.4790 N.am    1  UNL1       -0.5551
     18  C12        4.7690   -1.6050   -0.6570 C.2     1  UNL1        0.1081
     19  O4         4.6290   -2.3360   -1.7040 O.2     1  UNL1       -0.3106
     20  C13        5.8390   -0.5790   -0.6550 C.ar    1  UNL1        0.0884
     21  C14        6.6820   -0.4590   -1.7580 C.ar    1  UNL1       -0.0344
     22  C15        7.7000    0.4670   -1.7840 C.ar    1  UNL1       -0.0583
     23  C16        7.8650    1.2730   -0.6930 C.ar    1  UNL1       -0.0436
     24  C17        7.0310    1.1480    0.3860 C.ar    1  UNL1        0.0283
     25  N3         6.0310    0.2280    0.3950 N.ar    1  UNL1       -0.2536
     26  C18        0.0000   -0.3240    1.3050 C.ar    1  UNL1       -0.0248
     27  C19       -3.9770    0.5010   -0.6260 C.3     1  UNL1       -0.0277
     28 H          -7.3497    0.5055   -0.9693 H       1  UNL1        0.0232
     29 H          -6.1183    0.1612   -2.1602 H       1  UNL1        0.0232
     30 H          -6.1925    1.7380   -1.4108 H       1  UNL1        0.0232
     31 H          -5.6740    0.7106    0.7480 H       1  UNL1        0.0299
     32 H          -6.4322   -1.6544   -0.3361 H       1  UNL1        0.0268
     33 H          -5.4927   -1.5499    1.0834 H       1  UNL1        0.0268
     34 H          -4.5481   -1.8575   -1.7727 H       1  UNL1        0.0284
     35 H          -4.0680   -2.8153   -0.4549 H       1  UNL1        0.0284
     36 H          -2.3718   -0.9071   -1.0311 H       1  UNL1        0.0540
     37 H          -2.4482    1.8334    1.9235 H       1  UNL1        0.0636
     38 H          -0.5741    3.3062    2.2919 H       1  UNL1        0.0618
     39 H           1.6740    2.4345    2.0269 H       1  UNL1        0.0625
     40 H           1.9684   -1.5960    0.0937 H       1  UNL1        0.1290
     41 H           6.5401   -1.0771   -2.5721 H       1  UNL1        0.0639
     42 H           8.3209    0.5502   -2.6041 H       1  UNL1        0.0619
     43 H           8.6194    1.9771   -0.6821 H       1  UNL1        0.0633
     44 H           7.1640    1.7619    1.2048 H       1  UNL1        0.0830
     45 H           0.1426   -1.3098    1.0349 H       1  UNL1        0.0644
     46 H          -3.5397    1.2804   -0.0375 H       1  UNL1        0.0286
     47 H          -3.9401    0.8308   -1.6432 H       1  UNL1        0.0286
@<TRIPOS>UNITY_ATOM_ATTR
17 1
charge -1
@<TRIPOS>BOND
     1     1     2    1
     2     2     3    1
     3     2    27    1
     4     3     4    1
     5     4     5    1
     6     5     6    1
     7     5    27    1
     8     6     7    2
     9     6     8    2
    10     6     9    1
    11     9    10   ar
    12     9    26   ar
    13    10    11   ar
    14    11    12   ar
    15    12    13   ar
    16    13    14    1
    17    13    26   ar
    18    14    15    2
    19    14    16   am
    20    16    17    1
    21    17    18    1
    22    18    19    2
    23    18    20    1
    24    20    21   ar
    25    20    25   ar
    26    21    22   ar
    27    22    23   ar
    28    23    24   ar
    29    24    25   ar
    30     1    28    1
    31     1    29    1
    32     1    30    1
    33     2    31    1
    34     3    32    1
    35     3    33    1
    36     4    34    1
    37     4    35    1
    38     5    36    1
    39    10    37    1
    40    11    38    1
    41    12    39    1
    42    16    40    1
    43    21    41    1
    44    22    42    1
    45    23    43    1
    46    24    44    1
    47    26    45    1
    48    27    46    1
    49    27    47    1
@<TRIPOS>MOLECULE
../data/bude_mols_rdkit_confs_charged/molecule_87.pdb
 47 49 0 0 0
SMALL
GASTEIGER

@<TRIPOS>ATOM
      1  C1         6.2480    1.5270   -0.1750 C.3     1  UNL1       -0.0624
      2  C2         5.5860    0.4120    0.6010 C.3     1  UNL1       -0.0421
      3  C3         4.4390    0.9620    1.4590 C.3     1  UNL1       -0.0487
      4  C4         3.2770    1.1650    0.4740 C.3     1  UNL1       -0.0301
      5  C5         3.7590    0.6490   -0.8370 C.3     1  UNL1        0.0822
      6  S1         2.5010   -0.0940   -1.8430 S.O2    1  UNL1       -0.0002
      7  O1         1.6040    1.0420   -2.3160 O.2     1  UNL1       -0.1691
      8  O2         3.1510   -0.6490   -3.0750 O.2     1  UNL1       -0.1691
      9  C6         1.5660   -1.2770   -0.9780 C.ar    1  UNL1        0.0892
     10  C7         2.0330   -2.5500   -0.7940 C.ar    1  UNL1       -0.0368
     11  C8         1.2550   -3.4630   -0.1130 C.ar    1  UNL1       -0.0592
     12  C9         0.0180   -3.1180    0.3860 C.ar    1  UNL1       -0.0496
     13  C10       -0.4730   -1.8170    0.2050 C.ar    1  UNL1        0.0374
     14  C11       -1.7860   -1.4650    0.7380 C.2     1  UNL1        0.2305
     15  O3        -2.3250   -2.1430    1.6600 O.2     1  UNL1       -0.2714
     16  N1        -2.4810   -0.3510    0.2250 N.am    1  UNL1       -0.3921
     17  N2        -3.7240    0.0470    0.6710 N.am    1  UNL1       -0.5551
     18  C12       -4.5010    1.1030    0.1030 C.2     1  UNL1        0.1081
     19  O4        -4.0050    2.0670   -0.5060 O.2     1  UNL1       -0.3106
     20  C13       -5.9420    0.9830    0.2780 C.ar    1  UNL1        0.0884
     21  C14       -6.8100    1.9490   -0.2560 C.ar    1  UNL1       -0.0344
     22  C15       -8.1750    1.8690   -0.1120 C.ar    1  UNL1       -0.0583
     23  C16       -8.6800    0.7950    0.5850 C.ar    1  UNL1       -0.0436
     24  C17       -7.8350   -0.1740    1.1230 C.ar    1  UNL1        0.0283
     25  N3        -6.5270   -0.0170    0.9340 N.ar    1  UNL1       -0.2536
     26  C18        0.3300   -0.9580   -0.4710 C.ar    1  UNL1       -0.0248
     27  C19        4.7850   -0.4000   -0.4070 C.3     1  UNL1       -0.0277
     28 H           6.8270    2.1309    0.4921 H       1  UNL1        0.0232
     29 H           5.4981    2.1303   -0.6424 H       1  UNL1        0.0232
     30 H           6.8877    1.1092   -0.9241 H       1  UNL1        0.0232
     31 H           6.3430   -0.0978    1.1595 H       1  UNL1        0.0299
     32 H           4.7176    1.8912    1.9104 H       1  UNL1        0.0268
     33 H           4.1799    0.3013    2.2598 H       1  UNL1        0.0268
     34 H           3.0309    2.2035    0.3976 H       1  UNL1        0.0284
     35 H           2.3942    0.6539    0.7970 H       1  UNL1        0.0284
     36 H           4.1352    1.4373   -1.4550 H       1  UNL1        0.0540
     37 H           2.9578   -2.8242   -1.1610 H       1  UNL1        0.0636
     38 H           1.6064   -4.4234    0.0255 H       1  UNL1        0.0618
     39 H          -0.5472   -3.8170    0.8929 H       1  UNL1        0.0625
     40 H          -2.0552    0.1724   -0.4920 H       1  UNL1        0.1290
     41 H          -6.4096    2.7465   -0.7744 H       1  UNL1        0.0639
     42 H          -8.7981    2.5879   -0.5119 H       1  UNL1        0.0619
     43 H          -9.7004    0.7058    0.7112 H       1  UNL1        0.0633
     44 H          -8.2086   -0.9809    1.6469 H       1  UNL1        0.0830
     45 H          -0.0125    0.0048   -0.6148 H       1  UNL1        0.0644
     46 H           4.3185   -1.2488    0.0477 H       1  UNL1        0.0286
     47 H           5.3599   -0.8219   -1.2048 H       1  UNL1        0.0286
@<TRIPOS>UNITY_ATOM_ATTR
17 1
charge -1
@<TRIPOS>BOND
     1     1     2    1
     2     2     3    1
     3     2    27    1
     4     3     4    1
     5     4     5    1
     6     5     6    1
     7     5    27    1
     8     6     7    2
     9     6     8    2
    10     6     9    1
    11     9    10   ar
    12     9    26   ar
    13    10    11   ar
    14    11    12   ar
    15    12    13   ar
    16    13    14    1
    17    13    26   ar
    18    14    15    2
    19    14    16   am
    20    16    17    1
    21    17    18    1
    22    18    19    2
    23    18    20    1
    24    20    21   ar
    25    20    25   ar
    26    21    22   ar
    27    22    23   ar
    28    23    24   ar
    29    24    25   ar
    30     1    28    1
    31     1    29    1
    32     1    30    1
    33     2    31    1
    34     3    32    1
    35     3    33    1
    36     4    34    1
    37     4    35    1
    38     5    36    1
    39    10    37    1
    40    11    38    1
    41    12    39    1
    42    16    40    1
    43    21    41    1
    44    22    42    1
    45    23    43    1
    46    24    44    1
    47    26    45    1
    48    27    46    1
    49    27    47    1
@<TRIPOS>MOLECULE
../data/bude_mols_rdkit_confs_charged/molecule_87.pdb
 47 49 0 0 0
SMALL
GASTEIGER

@<TRIPOS>ATOM
      1  C1        -5.4680    1.8010   -0.1270 C.3     1  UNL1       -0.0624
      2  C2        -5.2830    0.3860    0.3830 C.3     1  UNL1       -0.0421
      3  C3        -6.1560   -0.6100   -0.3180 C.3     1  UNL1       -0.0487
      4  C4        -5.3830   -1.9030   -0.1740 C.3     1  UNL1       -0.0301
      5  C5        -3.9790   -1.4440   -0.5130 C.3     1  UNL1        0.0822
      6  S1        -2.7210   -2.5200    0.0800 S.O2    1  UNL1       -0.0002
      7  O1        -2.8130   -3.8860   -0.5550 O.2     1  UNL1       -0.1691
      8  O2        -2.8840   -2.6770    1.5570 O.2     1  UNL1       -0.1691
      9  C6        -1.1800   -1.8350   -0.3450 C.ar    1  UNL1        0.0892
     10  C7        -0.5780   -2.2120   -1.5180 C.ar    1  UNL1       -0.0368
     11  C8         0.6260   -1.7070   -1.9050 C.ar    1  UNL1       -0.0592
     12  C9         1.2520   -0.7770   -1.0750 C.ar    1  UNL1       -0.0496
     13  C10        0.6700   -0.3880    0.0950 C.ar    1  UNL1        0.0374
     14  C11        1.3740    0.5970    0.9360 C.2     1  UNL1        0.2305
     15  O3         0.7770    1.3230    1.7560 O.2     1  UNL1       -0.2714
     16  N1         2.7660    0.7430    0.8290 N.am    1  UNL1       -0.3921
     17  N2         3.5020    1.6880    1.5970 N.am    1  UNL1       -0.5551
     18  C12        4.4420    2.4680    0.8010 C.2     1  UNL1        0.1081
     19  O4         4.1430    3.5620    0.3090 O.2     1  UNL1       -0.3106
     20  C13        5.7540    1.8750    0.6160 C.ar    1  UNL1        0.0884
     21  C14        6.6440    2.5820   -0.1600 C.ar    1  UNL1       -0.0344
     22  C15        7.9160    2.0960   -0.4030 C.ar    1  UNL1       -0.0583
     23  C16        8.2230    0.8780    0.1740 C.ar    1  UNL1       -0.0436
     24  C17        7.3380    0.1790    0.9420 C.ar    1  UNL1        0.0283
     25  N3         6.0930    0.6910    1.1600 N.ar    1  UNL1       -0.2536
     26  C18       -0.5450   -0.9200    0.4550 C.ar    1  UNL1       -0.0248
     27  C19       -3.8810   -0.1030    0.1640 C.3     1  UNL1       -0.0277
     28 H          -6.4766    2.1135    0.0462 H       1  UNL1        0.0232
     29 H          -5.2602    1.8320   -1.1762 H       1  UNL1        0.0232
     30 H          -4.7979    2.4565    0.3889 H       1  UNL1        0.0232
     31 H          -5.5337    0.4480    1.4214 H       1  UNL1        0.0299
     32 H          -6.2836   -0.3512   -1.3484 H       1  UNL1        0.0268
     33 H          -7.1446   -0.6629    0.0880 H       1  UNL1        0.0268
     34 H          -5.7296   -2.6460   -0.8615 H       1  UNL1        0.0284
     35 H          -5.4746   -2.3655    0.7865 H       1  UNL1        0.0284
     36 H          -3.8262   -1.4189   -1.5717 H       1  UNL1        0.0540
     37 H          -1.0515   -2.8988   -2.1255 H       1  UNL1        0.0636
     38 H           1.0644   -2.0050   -2.7904 H       1  UNL1        0.0618
     39 H           2.1642   -0.3797   -1.3491 H       1  UNL1        0.0625
     40 H           3.2534    0.1675    0.1961 H       1  UNL1        0.1290
     41 H           6.3585    3.4868   -0.5660 H       1  UNL1        0.0639
     42 H           8.5965    2.6129   -0.9816 H       1  UNL1        0.0619
     43 H           9.1622    0.4801    0.0171 H       1  UNL1        0.0633
     44 H           7.6080   -0.7280    1.3537 H       1  UNL1        0.0830
     45 H          -0.9861   -0.6265    1.3406 H       1  UNL1        0.0644
     46 H          -3.3763   -0.2018    1.1023 H       1  UNL1        0.0286
     47 H          -3.3272    0.5871   -0.4376 H       1  UNL1        0.0286
@<TRIPOS>UNITY_ATOM_ATTR
17 1
charge -1
@<TRIPOS>BOND
     1     1     2    1
     2     2     3    1
     3     2    27    1
     4     3     4    1
     5     4     5    1
     6     5     6    1
     7     5    27    1
     8     6     7    2
     9     6     8    2
    10     6     9    1
    11     9    10   ar
    12     9    26   ar
    13    10    11   ar
    14    11    12   ar
    15    12    13   ar
    16    13    14    1
    17    13    26   ar
    18    14    15    2
    19    14    16   am
    20    16    17    1
    21    17    18    1
    22    18    19    2
    23    18    20    1
    24    20    21   ar
    25    20    25   ar
    26    21    22   ar
    27    22    23   ar
    28    23    24   ar
    29    24    25   ar
    30     1    28    1
    31     1    29    1
    32     1    30    1
    33     2    31    1
    34     3    32    1
    35     3    33    1
    36     4    34    1
    37     4    35    1
    38     5    36    1
    39    10    37    1
    40    11    38    1
    41    12    39    1
    42    16    40    1
    43    21    41    1
    44    22    42    1
    45    23    43    1
    46    24    44    1
    47    26    45    1
    48    27    46    1
    49    27    47    1
@<TRIPOS>MOLECULE
../data/bude_mols_rdkit_confs_charged/molecule_87.pdb
 47 49 0 0 0
SMALL
GASTEIGER

@<TRIPOS>ATOM
      1  C1        -6.0370    1.7480   -0.0440 C.3     1  UNL1       -0.0624
      2  C2        -5.4480    0.6560   -0.9050 C.3     1  UNL1       -0.0421
      3  C3        -4.1420    1.1010   -1.5500 C.3     1  UNL1       -0.0487
      4  C4        -3.0480    0.2590   -0.9290 C.3     1  UNL1       -0.0301
      5  C5        -3.6500   -0.0950    0.4110 C.3     1  UNL1        0.0822
      6  S1        -2.8100   -1.4630    1.1640 S.O2    1  UNL1       -0.0002
      7  O1        -2.8610   -2.6250    0.2280 O.2     1  UNL1       -0.1691
      8  O2        -3.4800   -1.8600    2.4320 O.2     1  UNL1       -0.1691
      9  C6        -1.1620   -0.9820    1.4760 C.ar    1  UNL1        0.0892
     10  C7        -0.8180   -0.4450    2.7170 C.ar    1  UNL1       -0.0368
     11  C8         0.4640   -0.0520    3.0200 C.ar    1  UNL1       -0.0592
     12  C9         1.4370   -0.1980    2.0560 C.ar    1  UNL1       -0.0496
     13  C10        1.1460   -0.7230    0.8160 C.ar    1  UNL1        0.0374
     14  C11        2.2340   -0.8560   -0.1310 C.2     1  UNL1        0.2305
     15  O3         3.3550   -1.2380    0.2700 O.2     1  UNL1       -0.2714
     16  N1         2.0750   -0.5620   -1.5250 N.am    1  UNL1       -0.3921
     17  N2         3.1660   -0.6990   -2.4160 N.am    1  UNL1       -0.5551
     18  C12        4.3850   -1.1820   -1.9350 C.2     1  UNL1        0.1081
     19  O4         4.6510   -2.3930   -2.0530 O.2     1  UNL1       -0.3106
     20  C13        5.3240   -0.2480   -1.3010 C.ar    1  UNL1        0.0884
     21  C14        6.5140   -0.7560   -0.8160 C.ar    1  UNL1       -0.0344
     22  C15        7.3970    0.0890   -0.2080 C.ar    1  UNL1       -0.0583
     23  C16        7.0710    1.4260   -0.0990 C.ar    1  UNL1       -0.0436
     24  C17        5.8720    1.8850   -0.5990 C.ar    1  UNL1        0.0283
     25  N3         5.0170    1.0480   -1.1910 N.ar    1  UNL1       -0.2536
     26  C18       -0.1470   -1.1030    0.5530 C.ar    1  UNL1       -0.0248
     27  C19       -5.0730   -0.4850    0.0120 C.3     1  UNL1       -0.0277
     28 H          -6.3160    2.5769   -0.6605 H       1  UNL1        0.0232
     29 H          -5.3109    2.0664    0.6745 H       1  UNL1        0.0232
     30 H          -6.9015    1.3744    0.4640 H       1  UNL1        0.0232
     31 H          -6.1628    0.3961   -1.6576 H       1  UNL1        0.0299
     32 H          -3.9670    2.1381   -1.3534 H       1  UNL1        0.0268
     33 H          -4.1720    0.9748   -2.6121 H       1  UNL1        0.0268
     34 H          -2.1437    0.8193   -0.8136 H       1  UNL1        0.0284
     35 H          -2.7705   -0.5911   -1.5165 H       1  UNL1        0.0284
     36 H          -3.5914    0.6942    1.1312 H       1  UNL1        0.0540
     37 H          -1.5529   -0.3390    3.4337 H       1  UNL1        0.0636
     38 H           0.6916    0.3424    3.9461 H       1  UNL1        0.0618
     39 H           2.4046    0.0921    2.2672 H       1  UNL1        0.0625
     40 H           1.2008   -0.2627   -1.8649 H       1  UNL1        0.1290
     41 H           6.7321   -1.7601   -0.9121 H       1  UNL1        0.0639
     42 H           8.2922   -0.2653    0.1635 H       1  UNL1        0.0619
     43 H           7.7251    2.0814    0.3568 H       1  UNL1        0.0633
     44 H           5.6326    2.8853   -0.5151 H       1  UNL1        0.0830
     45 H          -0.3675   -1.4958   -0.3755 H       1  UNL1        0.0644
     46 H          -5.0922   -1.4231   -0.5023 H       1  UNL1        0.0286
     47 H          -5.7385   -0.6186    0.8392 H       1  UNL1        0.0286
@<TRIPOS>UNITY_ATOM_ATTR
17 1
charge -1
@<TRIPOS>BOND
     1     1     2    1
     2     2     3    1
     3     2    27    1
     4     3     4    1
     5     4     5    1
     6     5     6    1
     7     5    27    1
     8     6     7    2
     9     6     8    2
    10     6     9    1
    11     9    10   ar
    12     9    26   ar
    13    10    11   ar
    14    11    12   ar
    15    12    13   ar
    16    13    14    1
    17    13    26   ar
    18    14    15    2
    19    14    16   am
    20    16    17    1
    21    17    18    1
    22    18    19    2
    23    18    20    1
    24    20    21   ar
    25    20    25   ar
    26    21    22   ar
    27    22    23   ar
    28    23    24   ar
    29    24    25   ar
    30     1    28    1
    31     1    29    1
    32     1    30    1
    33     2    31    1
    34     3    32    1
    35     3    33    1
    36     4    34    1
    37     4    35    1
    38     5    36    1
    39    10    37    1
    40    11    38    1
    41    12    39    1
    42    16    40    1
    43    21    41    1
    44    22    42    1
    45    23    43    1
    46    24    44    1
    47    26    45    1
    48    27    46    1
    49    27    47    1
@<TRIPOS>MOLECULE
../data/bude_mols_rdkit_confs_charged/molecule_87.pdb
 47 49 0 0 0
SMALL
GASTEIGER

@<TRIPOS>ATOM
      1  C1         6.7790    0.7860    0.0760 C.3     1  UNL1       -0.0624
      2  C2         5.4620    0.1400   -0.3530 C.3     1  UNL1       -0.0421
      3  C3         5.7300   -1.0740   -1.2200 C.3     1  UNL1       -0.0487
      4  C4         4.8030   -2.1750   -0.7600 C.3     1  UNL1       -0.0301
      5  C5         3.7980   -1.4350    0.1310 C.3     1  UNL1        0.0822
      6  S1         2.6030   -0.6760   -0.9190 S.O2    1  UNL1       -0.0002
      7  O1         1.8650   -1.8470   -1.5830 O.2     1  UNL1       -0.1691
      8  O2         3.1850    0.0910   -2.0550 O.2     1  UNL1       -0.1691
      9  C6         1.4020    0.2150   -0.0360 C.ar    1  UNL1        0.0892
     10  C7         1.8020    1.4070    0.5470 C.ar    1  UNL1       -0.0368
     11  C8         0.8480    2.1280    1.2310 C.ar    1  UNL1       -0.0592
     12  C9        -0.4720    1.7070    1.3480 C.ar    1  UNL1       -0.0496
     13  C10       -0.8500    0.5300    0.7650 C.ar    1  UNL1        0.0374
     14  C11       -2.2090    0.0320    0.8320 C.2     1  UNL1        0.2305
     15  O3        -2.5500   -1.0340    0.2160 O.2     1  UNL1       -0.2714
     16  N1        -3.2320    0.6720    1.5640 N.am    1  UNL1       -0.3921
     17  N2        -4.5170    0.2420    1.6450 N.am    1  UNL1       -0.5551
     18  C12       -5.2780   -0.6230    0.8760 C.2     1  UNL1        0.1081
     19  O4        -4.9860   -1.8230    0.7280 O.2     1  UNL1       -0.3106
     20  C13       -6.4810   -0.1210    0.2030 C.ar    1  UNL1        0.0884
     21  C14       -7.2860   -0.9600   -0.5490 C.ar    1  UNL1       -0.0344
     22  C15       -8.4330   -0.5120   -1.1780 C.ar    1  UNL1       -0.0583
     23  C16       -8.7680    0.8360   -1.0330 C.ar    1  UNL1       -0.0436
     24  C17       -7.9700    1.6580   -0.2890 C.ar    1  UNL1        0.0283
     25  N3        -6.8710    1.1650    0.2970 N.ar    1  UNL1       -0.2536
     26  C18        0.0940   -0.2130    0.0740 C.ar    1  UNL1       -0.0248
     27  C19        4.7370   -0.4540    0.8090 C.3     1  UNL1       -0.0277
     28 H           7.2690    1.1996   -0.7806 H       1  UNL1        0.0232
     29 H           7.4091    0.0470    0.5252 H       1  UNL1        0.0232
     30 H           6.5809    1.5637    0.7837 H       1  UNL1        0.0232
     31 H           4.9092    0.9160   -0.8399 H       1  UNL1        0.0299
     32 H           6.7482   -1.3840   -1.1097 H       1  UNL1        0.0268
     33 H           5.5602   -0.8451   -2.2514 H       1  UNL1        0.0268
     34 H           5.3354   -2.9177   -0.2034 H       1  UNL1        0.0284
     35 H           4.3401   -2.7002   -1.5692 H       1  UNL1        0.0284
     36 H           3.2256   -2.0058    0.8321 H       1  UNL1        0.0540
     37 H           2.7755    1.7411    0.4717 H       1  UNL1        0.0636
     38 H           1.1246    3.0176    1.6750 H       1  UNL1        0.0618
     39 H          -1.1577    2.2761    1.8685 H       1  UNL1        0.0625
     40 H          -2.9956    1.4930    2.0532 H       1  UNL1        0.1290
     41 H          -7.0210   -1.9529   -0.6432 H       1  UNL1        0.0639
     42 H          -9.0210   -1.1514   -1.7352 H       1  UNL1        0.0619
     43 H          -9.6161    1.2101   -1.4867 H       1  UNL1        0.0633
     44 H          -8.2129    2.6549   -0.1788 H       1  UNL1        0.0830
     45 H          -0.1861   -1.1031   -0.3667 H       1  UNL1        0.0644
     46 H           4.1940    0.2922    1.3505 H       1  UNL1        0.0286
     47 H           5.3821   -0.9062    1.5331 H       1  UNL1        0.0286
@<TRIPOS>UNITY_ATOM_ATTR
17 1
charge -1
@<TRIPOS>BOND
     1     1     2    1
     2     2     3    1
     3     2    27    1
     4     3     4    1
     5     4     5    1
     6     5     6    1
     7     5    27    1
     8     6     7    2
     9     6     8    2
    10     6     9    1
    11     9    10   ar
    12     9    26   ar
    13    10    11   ar
    14    11    12   ar
    15    12    13   ar
    16    13    14    1
    17    13    26   ar
    18    14    15    2
    19    14    16   am
    20    16    17    1
    21    17    18    1
    22    18    19    2
    23    18    20    1
    24    20    21   ar
    25    20    25   ar
    26    21    22   ar
    27    22    23   ar
    28    23    24   ar
    29    24    25   ar
    30     1    28    1
    31     1    29    1
    32     1    30    1
    33     2    31    1
    34     3    32    1
    35     3    33    1
    36     4    34    1
    37     4    35    1
    38     5    36    1
    39    10    37    1
    40    11    38    1
    41    12    39    1
    42    16    40    1
    43    21    41    1
    44    22    42    1
    45    23    43    1
    46    24    44    1
    47    26    45    1
    48    27    46    1
    49    27    47    1
@<TRIPOS>MOLECULE
../data/bude_mols_rdkit_confs_charged/molecule_87.pdb
 47 49 0 0 0
SMALL
GASTEIGER

@<TRIPOS>ATOM
      1  C1        -6.9630    1.2190    0.4750 C.3     1  UNL1       -0.0624
      2  C2        -5.5360    0.7800    0.6760 C.3     1  UNL1       -0.0421
      3  C3        -5.4550   -0.7160    0.4770 C.3     1  UNL1       -0.0487
      4  C4        -4.6630   -0.8130   -0.7990 C.3     1  UNL1       -0.0301
      5  C5        -3.6350    0.2490   -0.6160 C.3     1  UNL1        0.0822
      6  S1        -2.5080    0.1860    0.6260 S.O2    1  UNL1       -0.0002
      7  O1        -1.8520    1.5780    0.6900 O.2     1  UNL1       -0.1691
      8  O2        -3.1980    0.1220    1.9910 O.2     1  UNL1       -0.1691
      9  C6        -1.2470   -0.9340    0.6890 C.ar    1  UNL1        0.0892
     10  C7        -1.4270   -2.2330    1.1350 C.ar    1  UNL1       -0.0368
     11  C8        -0.3680   -3.1140    1.2040 C.ar    1  UNL1       -0.0592
     12  C9         0.9020   -2.7350    0.8360 C.ar    1  UNL1       -0.0496
     13  C10        1.1160   -1.4280    0.3820 C.ar    1  UNL1        0.0374
     14  C11        2.4400   -0.9740    0.0490 C.2     1  UNL1        0.2305
     15  O3         3.4340   -1.5080    0.6340 O.2     1  UNL1       -0.2714
     16  N1         2.6980    0.0450   -0.8950 N.am    1  UNL1       -0.3921
     17  N2         4.0220    0.4480   -1.1430 N.am    1  UNL1       -0.5551
     18  C12        4.6830    1.2000   -0.2120 C.2     1  UNL1        0.1081
     19  O4         3.8490    1.7550    0.7100 O.2     1  UNL1       -0.3106
     20  C13        6.0300    1.6050    0.1060 C.ar    1  UNL1        0.0884
     21  C14        6.6610    0.4680   -1.0140 C.ar    1  UNL1       -0.0344
     22  C15        7.9320    0.3390   -1.2020 C.ar    1  UNL1       -0.0583
     23  C16        8.9460    1.0460   -0.5800 C.ar    1  UNL1       -0.0436
     24  C17        8.4110    1.9940    0.3540 C.ar    1  UNL1        0.0283
     25  N3         7.1240    1.9290    0.3590 N.ar    1  UNL1       -0.2536
     26  C18        0.0250   -0.5580    0.3200 C.ar    1  UNL1       -0.0248
     27  C19       -4.5980    1.4050   -0.3580 C.3     1  UNL1       -0.0277
     28 H          -7.5847    0.7613    1.2159 H       1  UNL1        0.0232
     29 H          -7.2930    0.9242   -0.4992 H       1  UNL1        0.0232
     30 H          -7.0249    2.2834    0.5656 H       1  UNL1        0.0232
     31 H          -5.2429    1.0829    1.6595 H       1  UNL1        0.0299
     32 H          -6.4277   -1.1477    0.3658 H       1  UNL1        0.0268
     33 H          -5.0168   -1.2401    1.3005 H       1  UNL1        0.0268
     34 H          -5.2773   -0.6147   -1.6524 H       1  UNL1        0.0284
     35 H          -4.2493   -1.7842   -0.9737 H       1  UNL1        0.0284
     36 H          -2.9535    0.2420   -1.4408 H       1  UNL1        0.0540
     37 H          -2.3680   -2.5465    1.4201 H       1  UNL1        0.0636
     38 H          -0.5317   -4.0765    1.5383 H       1  UNL1        0.0618
     39 H           1.6855   -3.4042    0.8937 H       1  UNL1        0.0625
     40 H           1.9533    0.4714   -1.3775 H       1  UNL1        0.1290
     41 H           6.0094   -0.1265   -1.5498 H       1  UNL1        0.0639
     42 H           8.2240   -0.3700   -1.8927 H       1  UNL1        0.0619
     43 H           9.9523    0.9095   -0.7636 H       1  UNL1        0.0633
     44 H           8.9738    2.6338    0.9362 H       1  UNL1        0.0830
     45 H           0.1786    0.4056   -0.0160 H       1  UNL1        0.0644
     46 H          -4.0894    2.2588    0.0385 H       1  UNL1        0.0286
     47 H          -5.0902    1.7724   -1.2342 H       1  UNL1        0.0286
@<TRIPOS>UNITY_ATOM_ATTR
17 1
charge -1
@<TRIPOS>BOND
     1     1     2    1
     2     2     3    1
     3     2    27    1
     4     3     4    1
     5     4     5    1
     6     5     6    1
     7     5    27    1
     8     6     7    2
     9     6     8    2
    10     6     9    1
    11     9    10   ar
    12     9    26   ar
    13    10    11   ar
    14    11    12   ar
    15    12    13   ar
    16    13    14    1
    17    13    26   ar
    18    14    15    2
    19    14    16   am
    20    16    17    1
    21    17    18    1
    22    18    19    2
    23    18    20    1
    24    20    21   ar
    25    20    25   ar
    26    21    22   ar
    27    22    23   ar
    28    23    24   ar
    29    24    25   ar
    30     1    28    1
    31     1    29    1
    32     1    30    1
    33     2    31    1
    34     3    32    1
    35     3    33    1
    36     4    34    1
    37     4    35    1
    38     5    36    1
    39    10    37    1
    40    11    38    1
    41    12    39    1
    42    16    40    1
    43    21    41    1
    44    22    42    1
    45    23    43    1
    46    24    44    1
    47    26    45    1
    48    27    46    1
    49    27    47    1
@<TRIPOS>MOLECULE
../data/bude_mols_rdkit_confs_charged/molecule_87.pdb
 47 49 0 0 0
SMALL
GASTEIGER

@<TRIPOS>ATOM
      1  C1        -6.7530    0.1200    2.5090 C.3     1  UNL1       -0.0624
      2  C2        -5.4430    0.4620    1.8080 C.3     1  UNL1       -0.0421
      3  C3        -4.4670   -0.6620    1.9390 C.3     1  UNL1       -0.0487
      4  C4        -3.8060   -0.8420    0.6080 C.3     1  UNL1       -0.0301
      5  C5        -4.3160    0.2630   -0.2660 C.3     1  UNL1        0.0822
      6  S1        -3.1550    1.6210   -0.1610 S.O2    1  UNL1       -0.0002
      7  O1        -3.6380    2.8040   -0.9290 O.2     1  UNL1       -0.1691
      8  O2        -2.9410    1.9780    1.2790 O.2     1  UNL1       -0.1691
      9  C6        -1.6220    1.1410   -0.8460 C.ar    1  UNL1        0.0892
     10  C7        -1.4170    1.2780   -2.2240 C.ar    1  UNL1       -0.0368
     11  C8        -0.2130    0.9070   -2.7830 C.ar    1  UNL1       -0.0592
     12  C9         0.8130    0.3970   -2.0110 C.ar    1  UNL1       -0.0496
     13  C10        0.6300    0.2540   -0.6500 C.ar    1  UNL1        0.0374
     14  C11        1.6640   -0.2660    0.2170 C.2     1  UNL1        0.2305
     15  O3         1.3790   -0.7410    1.3250 O.2     1  UNL1       -0.2714
     16  N1         3.0100   -0.2260   -0.2150 N.am    1  UNL1       -0.3921
     17  N2         4.0230   -0.7340    0.6260 N.am    1  UNL1       -0.5551
     18  C12        4.8750   -1.7300    0.0230 C.2     1  UNL1        0.1081
     19  O4         4.3690   -2.8280   -0.2550 O.2     1  UNL1       -0.3106
     20  C13        6.2720   -1.3810   -0.2170 C.ar    1  UNL1        0.0884
     21  C14        7.1270   -2.3320   -0.7700 C.ar    1  UNL1       -0.0344
     22  C15        8.4480   -2.0380   -0.9900 C.ar    1  UNL1       -0.0583
     23  C16        8.8920   -0.7720   -0.6450 C.ar    1  UNL1       -0.0436
     24  C17        8.0430    0.1410   -0.1080 C.ar    1  UNL1        0.0283
     25  N3         6.7380   -0.1780    0.0990 N.ar    1  UNL1       -0.2536
     26  C18       -0.5800    0.6310   -0.1140 C.ar    1  UNL1       -0.0248
     27  C19       -5.6200    0.6600    0.3450 C.3     1  UNL1       -0.0277
     28 H          -6.5736   -0.0123    3.5555 H       1  UNL1        0.0232
     29 H          -7.1518   -0.7841    2.0984 H       1  UNL1        0.0232
     30 H          -7.4530    0.9163    2.3650 H       1  UNL1        0.0232
     31 H          -5.0964    1.3610    2.2733 H       1  UNL1        0.0299
     32 H          -4.9788   -1.5596    2.2170 H       1  UNL1        0.0268
     33 H          -3.7407   -0.4441    2.6939 H       1  UNL1        0.0268
     34 H          -4.0641   -1.7932    0.1915 H       1  UNL1        0.0284
     35 H          -2.7400   -0.8094    0.6949 H       1  UNL1        0.0284
     36 H          -4.4294   -0.0173   -1.2924 H       1  UNL1        0.0540
     37 H          -2.1680    1.6571   -2.8218 H       1  UNL1        0.0636
     38 H          -0.0749    1.0125   -3.8003 H       1  UNL1        0.0618
     39 H           1.7078    0.1255   -2.4476 H       1  UNL1        0.0625
     40 H           3.2383    0.1528   -1.0945 H       1  UNL1        0.1290
     41 H           6.7629   -3.2657   -1.0161 H       1  UNL1        0.0639
     42 H           9.0893   -2.7357   -1.3985 H       1  UNL1        0.0619
     43 H           9.8809   -0.5197   -0.7982 H       1  UNL1        0.0633
     44 H           8.3893    1.0800    0.1438 H       1  UNL1        0.0830
     45 H          -0.7120    0.5232    0.9038 H       1  UNL1        0.0644
     46 H          -5.8387    1.6849    0.1291 H       1  UNL1        0.0286
     47 H          -6.4340    0.0824   -0.0406 H       1  UNL1        0.0286
@<TRIPOS>UNITY_ATOM_ATTR
17 1
charge -1
@<TRIPOS>BOND
     1     1     2    1
     2     2     3    1
     3     2    27    1
     4     3     4    1
     5     4     5    1
     6     5     6    1
     7     5    27    1
     8     6     7    2
     9     6     8    2
    10     6     9    1
    11     9    10   ar
    12     9    26   ar
    13    10    11   ar
    14    11    12   ar
    15    12    13   ar
    16    13    14    1
    17    13    26   ar
    18    14    15    2
    19    14    16   am
    20    16    17    1
    21    17    18    1
    22    18    19    2
    23    18    20    1
    24    20    21   ar
    25    20    25   ar
    26    21    22   ar
    27    22    23   ar
    28    23    24   ar
    29    24    25   ar
    30     1    28    1
    31     1    29    1
    32     1    30    1
    33     2    31    1
    34     3    32    1
    35     3    33    1
    36     4    34    1
    37     4    35    1
    38     5    36    1
    39    10    37    1
    40    11    38    1
    41    12    39    1
    42    16    40    1
    43    21    41    1
    44    22    42    1
    45    23    43    1
    46    24    44    1
    47    26    45    1
    48    27    46    1
    49    27    47    1
@<TRIPOS>MOLECULE
../data/bude_mols_rdkit_confs_charged/molecule_87.pdb
 47 49 0 0 0
SMALL
GASTEIGER

@<TRIPOS>ATOM
      1  C1        -6.4650    1.0630   -1.2810 C.3     1  UNL1       -0.0624
      2  C2        -5.6980    0.3250   -0.2140 C.3     1  UNL1       -0.0421
      3  C3        -6.2440   -1.0710    0.0420 C.3     1  UNL1       -0.0487
      4  C4        -5.1350   -1.6700    0.8880 C.3     1  UNL1       -0.0301
      5  C5        -3.8590   -1.0300    0.3360 C.3     1  UNL1        0.0822
      6  S1        -2.9020   -0.2720    1.6170 S.O2    1  UNL1       -0.0002
      7  O1        -3.7210    0.8180    2.2840 O.2     1  UNL1       -0.1691
      8  O2        -2.4560   -1.2180    2.6670 O.2     1  UNL1       -0.1691
      9  C6        -1.4770    0.4210    0.8750 C.ar    1  UNL1        0.0892
     10  C7        -1.3750    1.7580    0.5590 C.ar    1  UNL1       -0.0368
     11  C8        -0.2180    2.2490   -0.0270 C.ar    1  UNL1       -0.0592
     12  C9         0.8440    1.3810   -0.2940 C.ar    1  UNL1       -0.0496
     13  C10        0.7740    0.0470    0.0140 C.ar    1  UNL1        0.0374
     14  C11        1.9080   -0.8720   -0.2340 C.2     1  UNL1        0.2305
     15  O3         1.6550   -2.0670   -0.5510 O.2     1  UNL1       -0.2714
     16  N1         3.2560   -0.4810   -0.1320 N.am    1  UNL1       -0.3921
     17  N2         4.3660   -1.3350   -0.3400 N.am    1  UNL1       -0.5551
     18  C12        5.3370   -1.1980    0.7100 C.2     1  UNL1        0.1081
     19  O4         5.0930   -1.9890    1.7050 O.2     1  UNL1       -0.3106
     20  C13        6.4600   -0.3500    0.8470 C.ar    1  UNL1        0.0884
     21  C14        6.9080   -0.6360   -0.7700 C.ar    1  UNL1       -0.0344
     22  C15        7.9380   -0.1160   -1.3440 C.ar    1  UNL1       -0.0583
     23  C16        8.8500    0.7490   -0.7670 C.ar    1  UNL1       -0.0436
     24  C17        8.4970    0.9960    0.5730 C.ar    1  UNL1        0.0283
     25  N3         7.4380    0.3890    0.9640 N.ar    1  UNL1       -0.2536
     26  C18       -0.3810   -0.4200    0.5930 C.ar    1  UNL1       -0.0248
     27  C19       -4.2760    0.0430   -0.6110 C.3     1  UNL1       -0.0277
     28 H          -7.4662    1.2359   -0.9455 H       1  UNL1        0.0232
     29 H          -6.4850    0.4768   -2.1759 H       1  UNL1        0.0232
     30 H          -5.9883    2.0002   -1.4792 H       1  UNL1        0.0232
     31 H          -5.7803    0.9739    0.6328 H       1  UNL1        0.0299
     32 H          -6.3776   -1.6134   -0.8706 H       1  UNL1        0.0268
     33 H          -7.2082   -1.0875    0.5057 H       1  UNL1        0.0268
     34 H          -5.1051   -2.7339    0.7775 H       1  UNL1        0.0284
     35 H          -5.2692   -1.4842    1.9332 H       1  UNL1        0.0284
     36 H          -3.2646   -1.7877   -0.1303 H       1  UNL1        0.0540
     37 H          -2.1614    2.3957    0.7588 H       1  UNL1        0.0636
     38 H          -0.1417    3.2504   -0.2647 H       1  UNL1        0.0618
     39 H           1.7007    1.7527   -0.7332 H       1  UNL1        0.0625
     40 H           3.4412    0.4573    0.1016 H       1  UNL1        0.1290
     41 H           6.3144   -1.2689   -1.3287 H       1  UNL1        0.0639
     42 H           8.0981   -0.3700   -2.3314 H       1  UNL1        0.0619
     43 H           9.6685    1.1536   -1.2480 H       1  UNL1        0.0633
     44 H           9.0458    1.6150    1.1900 H       1  UNL1        0.0830
     45 H          -0.4489   -1.4221    0.8300 H       1  UNL1        0.0644
     46 H          -3.6661    0.9144   -0.4948 H       1  UNL1        0.0286
     47 H          -4.1780   -0.2443   -1.6370 H       1  UNL1        0.0286
@<TRIPOS>UNITY_ATOM_ATTR
17 1
charge -1
@<TRIPOS>BOND
     1     1     2    1
     2     2     3    1
     3     2    27    1
     4     3     4    1
     5     4     5    1
     6     5     6    1
     7     5    27    1
     8     6     7    2
     9     6     8    2
    10     6     9    1
    11     9    10   ar
    12     9    26   ar
    13    10    11   ar
    14    11    12   ar
    15    12    13   ar
    16    13    14    1
    17    13    26   ar
    18    14    15    2
    19    14    16   am
    20    16    17    1
    21    17    18    1
    22    18    19    2
    23    18    20    1
    24    20    21   ar
    25    20    25   ar
    26    21    22   ar
    27    22    23   ar
    28    23    24   ar
    29    24    25   ar
    30     1    28    1
    31     1    29    1
    32     1    30    1
    33     2    31    1
    34     3    32    1
    35     3    33    1
    36     4    34    1
    37     4    35    1
    38     5    36    1
    39    10    37    1
    40    11    38    1
    41    12    39    1
    42    16    40    1
    43    21    41    1
    44    22    42    1
    45    23    43    1
    46    24    44    1
    47    26    45    1
    48    27    46    1
    49    27    47    1
@<TRIPOS>MOLECULE
../data/bude_mols_rdkit_confs_charged/molecule_87.pdb
 47 49 0 0 0
SMALL
GASTEIGER

@<TRIPOS>ATOM
      1  C1        -7.3050    1.4350    0.0270 C.3     1  UNL1       -0.0624
      2  C2        -5.9480    1.0450    0.5940 C.3     1  UNL1       -0.0421
      3  C3        -5.4460   -0.2360    0.0060 C.3     1  UNL1       -0.0487
      4  C4        -4.1530    0.1180   -0.7380 C.3     1  UNL1       -0.0301
      5  C5        -3.6780    1.3560    0.0080 C.3     1  UNL1        0.0822
      6  S1        -2.7800    0.8210    1.4250 S.O2    1  UNL1       -0.0002
      7  O1        -2.1630    1.9850    2.1550 O.2     1  UNL1       -0.1691
      8  O2        -3.7170    0.1410    2.3560 O.2     1  UNL1       -0.1691
      9  C6        -1.5370   -0.2820    0.8860 C.ar    1  UNL1        0.0892
     10  C7        -1.7420   -1.6480    0.8160 C.ar    1  UNL1       -0.0368
     11  C8        -0.7590   -2.5010    0.3790 C.ar    1  UNL1       -0.0592
     12  C9         0.4800   -2.0210   -0.0080 C.ar    1  UNL1       -0.0496
     13  C10        0.6980   -0.6820    0.0550 C.ar    1  UNL1        0.0374
     14  C11        1.9710   -0.0900   -0.3520 C.2     1  UNL1        0.2305
     15  O3         2.2650    1.0940   -0.0220 O.2     1  UNL1       -0.2714
     16  N1         2.9360   -0.7900   -1.1250 N.am    1  UNL1       -0.3921
     17  N2         4.1690   -0.2120   -1.5160 N.am    1  UNL1       -0.5551
     18  C12        5.3630   -0.8760   -1.1310 C.2     1  UNL1        0.1081
     19  O4         5.3340   -2.1410   -1.1280 O.2     1  UNL1       -0.3106
     20  C13        6.5890   -0.2160   -0.7470 C.ar    1  UNL1        0.0884
     21  C14        7.7330   -0.9260   -0.3850 C.ar    1  UNL1       -0.0344
     22  C15        8.8850   -0.2640   -0.0300 C.ar    1  UNL1       -0.0583
     23  C16        8.9590    1.1110   -0.0170 C.ar    1  UNL1       -0.0436
     24  C17        7.7990    1.7960   -0.3840 C.ar    1  UNL1        0.0283
     25  N3         6.6950    1.1180   -0.7240 N.ar    1  UNL1       -0.2536
     26  C18       -0.2950    0.1620    0.4950 C.ar    1  UNL1       -0.0248
     27  C19       -4.9330    2.1200    0.3330 C.3     1  UNL1       -0.0277
     28 H          -8.0113    0.6558    0.2243 H       1  UNL1        0.0232
     29 H          -7.2213    1.5815   -1.0296 H       1  UNL1        0.0232
     30 H          -7.6367    2.3420    0.4876 H       1  UNL1        0.0232
     31 H          -6.0822    0.9147    1.6475 H       1  UNL1        0.0299
     32 H          -6.1668   -0.6408   -0.6733 H       1  UNL1        0.0268
     33 H          -5.2735   -0.9731    0.7622 H       1  UNL1        0.0268
     34 H          -4.3458    0.3362   -1.7676 H       1  UNL1        0.0284
     35 H          -3.4355   -0.6757   -0.7514 H       1  UNL1        0.0284
     36 H          -3.0162    1.9904   -0.5437 H       1  UNL1        0.0540
     37 H          -2.6557   -2.0353    1.0990 H       1  UNL1        0.0636
     38 H          -0.9468   -3.5150    0.3385 H       1  UNL1        0.0618
     39 H           1.2184   -2.6633   -0.3356 H       1  UNL1        0.0625
     40 H           2.7398   -1.7147   -1.4002 H       1  UNL1        0.1290
     41 H           7.7152   -1.9578   -0.3834 H       1  UNL1        0.0639
     42 H           9.7177   -0.8134    0.2342 H       1  UNL1        0.0619
     43 H           9.8237    1.6075    0.2492 H       1  UNL1        0.0633
     44 H           7.7922    2.8279   -0.3933 H       1  UNL1        0.0830
     45 H          -0.0994    1.1746    0.5336 H       1  UNL1        0.0644
     46 H          -4.7935    2.7314    1.2000 H       1  UNL1        0.0286
     47 H          -5.2273    2.7859   -0.4511 H       1  UNL1        0.0286
@<TRIPOS>UNITY_ATOM_ATTR
17 1
charge -1
@<TRIPOS>BOND
     1     1     2    1
     2     2     3    1
     3     2    27    1
     4     3     4    1
     5     4     5    1
     6     5     6    1
     7     5    27    1
     8     6     7    2
     9     6     8    2
    10     6     9    1
    11     9    10   ar
    12     9    26   ar
    13    10    11   ar
    14    11    12   ar
    15    12    13   ar
    16    13    14    1
    17    13    26   ar
    18    14    15    2
    19    14    16   am
    20    16    17    1
    21    17    18    1
    22    18    19    2
    23    18    20    1
    24    20    21   ar
    25    20    25   ar
    26    21    22   ar
    27    22    23   ar
    28    23    24   ar
    29    24    25   ar
    30     1    28    1
    31     1    29    1
    32     1    30    1
    33     2    31    1
    34     3    32    1
    35     3    33    1
    36     4    34    1
    37     4    35    1
    38     5    36    1
    39    10    37    1
    40    11    38    1
    41    12    39    1
    42    16    40    1
    43    21    41    1
    44    22    42    1
    45    23    43    1
    46    24    44    1
    47    26    45    1
    48    27    46    1
    49    27    47    1
@<TRIPOS>MOLECULE
../data/bude_mols_rdkit_confs_charged/molecule_87.pdb
 47 49 0 0 0
SMALL
GASTEIGER

@<TRIPOS>ATOM
      1  C1        -6.7390    1.5010   -0.3680 C.3     1  UNL1       -0.0624
      2  C2        -6.1590    0.7170    0.7710 C.3     1  UNL1       -0.0421
      3  C3        -6.2850   -0.7830    0.5770 C.3     1  UNL1       -0.0487
      4  C4        -5.4780   -1.0130   -0.6750 C.3     1  UNL1       -0.0301
      5  C5        -4.2440   -0.1140   -0.4250 C.3     1  UNL1        0.0822
      6  S1        -2.9660   -1.1730    0.1840 S.O2    1  UNL1       -0.0002
      7  O1        -3.2450   -1.5010    1.6500 O.2     1  UNL1       -0.1691
      8  O2        -2.9120   -2.4610   -0.6030 O.2     1  UNL1       -0.1691
      9  C6        -1.4480   -0.3430    0.1630 C.ar    1  UNL1        0.0892
     10  C7        -1.3270    0.8610    0.8110 C.ar    1  UNL1       -0.0368
     11  C8        -0.1140    1.5290    0.8620 C.ar    1  UNL1       -0.0592
     12  C9         0.9710    0.9850    0.2610 C.ar    1  UNL1       -0.0496
     13  C10        0.8890   -0.2360   -0.4080 C.ar    1  UNL1        0.0374
     14  C11        2.1190   -0.8210   -1.0060 C.2     1  UNL1        0.2305
     15  O3         2.0730   -1.5890   -1.9910 O.2     1  UNL1       -0.2714
     16  N1         3.3940   -0.5210   -0.4650 N.am    1  UNL1       -0.3921
     17  N2         4.6210   -1.0210   -0.9500 N.am    1  UNL1       -0.5551
     18  C12        5.5990   -0.0810   -1.2470 C.2     1  UNL1        0.1081
     19  O4         5.1930    0.6950   -2.3140 O.2     1  UNL1       -0.3106
     20  C13        6.8670    0.3670   -0.8380 C.ar    1  UNL1        0.0884
     21  C14        6.9810   -0.8780    0.3290 C.ar    1  UNL1       -0.0344
     22  C15        8.0100   -0.9930    1.0790 C.ar    1  UNL1       -0.0583
     23  C16        9.1660   -0.2090    1.1200 C.ar    1  UNL1       -0.0436
     24  C17        9.0690    0.8300    0.1490 C.ar    1  UNL1        0.0283
     25  N3         7.9630    0.7540   -0.4840 N.ar    1  UNL1       -0.2536
     26  C18       -0.3230   -0.8750   -0.4430 C.ar    1  UNL1       -0.0248
     27  C19       -4.6260    0.8570    0.6490 C.3     1  UNL1       -0.0277
     28 H          -7.8068    1.4405   -0.3354 H       1  UNL1        0.0232
     29 H          -6.3870    1.0976   -1.2944 H       1  UNL1        0.0232
     30 H          -6.4371    2.5243   -0.2869 H       1  UNL1        0.0232
     31 H          -6.6409    1.0624    1.6617 H       1  UNL1        0.0299
     32 H          -7.3060   -1.0715    0.4385 H       1  UNL1        0.0268
     33 H          -5.9464   -1.3538    1.4163 H       1  UNL1        0.0268
     34 H          -6.0152   -0.7037   -1.5472 H       1  UNL1        0.0284
     35 H          -5.2371   -2.0402   -0.8529 H       1  UNL1        0.0284
     36 H          -3.9220    0.4049   -1.3036 H       1  UNL1        0.0540
     37 H          -2.1539    1.2760    1.2682 H       1  UNL1        0.0636
     38 H          -0.0380    2.4332    1.3537 H       1  UNL1        0.0618
     39 H           1.8743    1.4827    0.2987 H       1  UNL1        0.0625
     40 H           3.4261    0.0843    0.3108 H       1  UNL1        0.1290
     41 H           6.2039   -1.5496    0.4298 H       1  UNL1        0.0639
     42 H           7.9830   -1.7767    1.7499 H       1  UNL1        0.0619
     43 H           9.9658   -0.3590    1.7547 H       1  UNL1        0.0633
     44 H           9.7934    1.5455   -0.0192 H       1  UNL1        0.0830
     45 H          -0.3990   -1.7788   -0.9353 H       1  UNL1        0.0644
     46 H          -4.1487    0.6056    1.5731 H       1  UNL1        0.0286
     47 H          -4.3264    1.8578    0.4174 H       1  UNL1        0.0286
@<TRIPOS>UNITY_ATOM_ATTR
17 1
charge -1
@<TRIPOS>BOND
     1     1     2    1
     2     2     3    1
     3     2    27    1
     4     3     4    1
     5     4     5    1
     6     5     6    1
     7     5    27    1
     8     6     7    2
     9     6     8    2
    10     6     9    1
    11     9    10   ar
    12     9    26   ar
    13    10    11   ar
    14    11    12   ar
    15    12    13   ar
    16    13    14    1
    17    13    26   ar
    18    14    15    2
    19    14    16   am
    20    16    17    1
    21    17    18    1
    22    18    19    2
    23    18    20    1
    24    20    21   ar
    25    20    25   ar
    26    21    22   ar
    27    22    23   ar
    28    23    24   ar
    29    24    25   ar
    30     1    28    1
    31     1    29    1
    32     1    30    1
    33     2    31    1
    34     3    32    1
    35     3    33    1
    36     4    34    1
    37     4    35    1
    38     5    36    1
    39    10    37    1
    40    11    38    1
    41    12    39    1
    42    16    40    1
    43    21    41    1
    44    22    42    1
    45    23    43    1
    46    24    44    1
    47    26    45    1
    48    27    46    1
    49    27    47    1
@<TRIPOS>MOLECULE
../data/bude_mols_rdkit_confs_charged/molecule_87.pdb
 47 49 0 0 0
SMALL
GASTEIGER

@<TRIPOS>ATOM
      1  C1        -7.2220   -0.6950   -0.5280 C.3     1  UNL1       -0.0624
      2  C2        -5.8790   -0.0870   -0.2300 C.3     1  UNL1       -0.0421
      3  C3        -5.4940   -0.2240    1.2400 C.3     1  UNL1       -0.0487
      4  C4        -4.0210    0.1980    1.1650 C.3     1  UNL1       -0.0301
      5  C5        -3.5450   -0.5270   -0.0620 C.3     1  UNL1        0.0822
      6  S1        -2.4910    0.5030   -1.0820 S.O2    1  UNL1       -0.0002
      7  O1        -3.2510    1.7000   -1.5770 O.2     1  UNL1       -0.1691
      8  O2        -2.1390   -0.3160   -2.2950 O.2     1  UNL1       -0.1691
      9  C6        -1.0890    1.0490   -0.2300 C.ar    1  UNL1        0.0892
     10  C7        -1.1100    2.2390    0.4670 C.ar    1  UNL1       -0.0368
     11  C8        -0.0140    2.7110    1.1600 C.ar    1  UNL1       -0.0592
     12  C9         1.1320    1.9650    1.1510 C.ar    1  UNL1       -0.0496
     13  C10        1.2110    0.7620    0.4690 C.ar    1  UNL1        0.0374
     14  C11        2.4400   -0.0080    0.4770 C.2     1  UNL1        0.2305
     15  O3         3.4540    0.4920    1.0050 O.2     1  UNL1       -0.2714
     16  N1         2.5510   -1.3040   -0.0850 N.am    1  UNL1       -0.3921
     17  N2         3.7620   -1.9880   -0.0400 N.am    1  UNL1       -0.5551
     18  C12        4.9010   -1.5040    0.6270 C.2     1  UNL1        0.1081
     19  O4         4.9330   -1.4800    1.8740 O.2     1  UNL1       -0.3106
     20  C13        6.0360   -1.0350   -0.1540 C.ar    1  UNL1        0.0884
     21  C14        7.1880   -0.5460    0.4490 C.ar    1  UNL1       -0.0344
     22  C15        8.2500   -0.1090   -0.3050 C.ar    1  UNL1       -0.0583
     23  C16        8.1970   -0.1460   -1.6830 C.ar    1  UNL1       -0.0436
     24  C17        7.0360   -0.6380   -2.2350 C.ar    1  UNL1        0.0283
     25  N3         6.0130   -1.0590   -1.4950 N.ar    1  UNL1       -0.2536
     26  C18        0.0950    0.3280   -0.2100 C.ar    1  UNL1       -0.0248
     27  C19       -4.7510   -0.8700   -0.8880 C.3     1  UNL1       -0.0277
     28 H          -7.9877   -0.1199   -0.0507 H       1  UNL1        0.0232
     29 H          -7.2485   -1.6993   -0.1598 H       1  UNL1        0.0232
     30 H          -7.3853   -0.6984   -1.5855 H       1  UNL1        0.0232
     31 H          -5.9795    0.9245   -0.5642 H       1  UNL1        0.0299
     32 H          -5.6024   -1.2302    1.5876 H       1  UNL1        0.0268
     33 H          -6.0935    0.3448    1.9196 H       1  UNL1        0.0268
     34 H          -3.4827   -0.1164    2.0346 H       1  UNL1        0.0284
     35 H          -3.8796    1.2576    1.1196 H       1  UNL1        0.0284
     36 H          -2.9925   -1.3877    0.2523 H       1  UNL1        0.0540
     37 H          -1.9779    2.7973    0.4704 H       1  UNL1        0.0636
     38 H          -0.0582    3.6055    1.6727 H       1  UNL1        0.0618
     39 H           1.9588    2.3069    1.6653 H       1  UNL1        0.0625
     40 H           1.7675   -1.7226   -0.5094 H       1  UNL1        0.1290
     41 H           7.2469   -0.5105    1.4787 H       1  UNL1        0.0639
     42 H           9.0959    0.2506    0.1642 H       1  UNL1        0.0619
     43 H           8.9838    0.1771   -2.2674 H       1  UNL1        0.0633
     44 H           6.9556   -0.6822   -3.2629 H       1  UNL1        0.0830
     45 H           0.1413   -0.5664   -0.7227 H       1  UNL1        0.0644
     46 H          -4.6165   -0.5630   -1.9041 H       1  UNL1        0.0286
     47 H          -4.9432   -1.9221   -0.9213 H       1  UNL1        0.0286
@<TRIPOS>UNITY_ATOM_ATTR
17 1
charge -1
@<TRIPOS>BOND
     1     1     2    1
     2     2     3    1
     3     2    27    1
     4     3     4    1
     5     4     5    1
     6     5     6    1
     7     5    27    1
     8     6     7    2
     9     6     8    2
    10     6     9    1
    11     9    10   ar
    12     9    26   ar
    13    10    11   ar
    14    11    12   ar
    15    12    13   ar
    16    13    14    1
    17    13    26   ar
    18    14    15    2
    19    14    16   am
    20    16    17    1
    21    17    18    1
    22    18    19    2
    23    18    20    1
    24    20    21   ar
    25    20    25   ar
    26    21    22   ar
    27    22    23   ar
    28    23    24   ar
    29    24    25   ar
    30     1    28    1
    31     1    29    1
    32     1    30    1
    33     2    31    1
    34     3    32    1
    35     3    33    1
    36     4    34    1
    37     4    35    1
    38     5    36    1
    39    10    37    1
    40    11    38    1
    41    12    39    1
    42    16    40    1
    43    21    41    1
    44    22    42    1
    45    23    43    1
    46    24    44    1
    47    26    45    1
    48    27    46    1
    49    27    47    1
@<TRIPOS>MOLECULE
../data/bude_mols_rdkit_confs_charged/molecule_87.pdb
 47 49 0 0 0
SMALL
GASTEIGER

@<TRIPOS>ATOM
      1  C1        -4.5970    2.7050   -0.9590 C.3     1  UNL1       -0.0624
      2  C2        -4.5700    1.3750   -0.2620 C.3     1  UNL1       -0.0421
      3  C3        -5.9030    0.6340   -0.4160 C.3     1  UNL1       -0.0487
      4  C4        -5.5170   -0.7120    0.1500 C.3     1  UNL1       -0.0301
      5  C5        -4.0580   -0.9190   -0.3170 C.3     1  UNL1        0.0822
      6  S1        -3.0500   -1.3780    1.0480 S.O2    1  UNL1       -0.0002
      7  O1        -3.6690   -2.4230    1.9330 O.2     1  UNL1       -0.1691
      8  O2        -2.8230   -0.1680    1.9460 O.2     1  UNL1       -0.1691
      9  C6        -1.4630   -1.8550    0.4950 C.ar    1  UNL1        0.0892
     10  C7        -1.3350   -3.1080   -0.0660 C.ar    1  UNL1       -0.0368
     11  C8        -0.1090   -3.5530   -0.4710 C.ar    1  UNL1       -0.0592
     12  C9         1.0150   -2.7710   -0.3310 C.ar    1  UNL1       -0.0496
     13  C10        0.9130   -1.4930    0.2360 C.ar    1  UNL1        0.0374
     14  C11        2.1370   -0.7360    0.4170 C.2     1  UNL1        0.2305
     15  O3         3.2480   -1.2900    0.2260 O.2     1  UNL1       -0.2714
     16  N1         2.1430    0.6420    0.8130 N.am    1  UNL1       -0.3921
     17  N2         3.1970    1.3970    1.0310 N.am    1  UNL1       -0.5551
     18  C12        4.2790    2.0840    0.6340 C.2     1  UNL1        0.1081
     19  O4         4.2260    3.3720    0.4620 O.2     1  UNL1       -0.3106
     20  C13        5.6260    1.5220    0.3490 C.ar    1  UNL1        0.0884
     21  C14        6.6870    2.3310   -0.0040 C.ar    1  UNL1       -0.0344
     22  C15        7.9230    1.7460   -0.2310 C.ar    1  UNL1       -0.0583
     23  C16        8.1040    0.3880   -0.1120 C.ar    1  UNL1       -0.0436
     24  C17        7.0020   -0.4030    0.2430 C.ar    1  UNL1        0.0283
     25  N3         5.8720    0.2190    0.4450 N.ar    1  UNL1       -0.2536
     26  C18       -0.3300   -1.0830    0.6280 C.ar    1  UNL1       -0.0248
     27  C19       -3.6230    0.3720   -0.9250 C.3     1  UNL1       -0.0277
     28 H          -5.2737    3.3601   -0.4513 H       1  UNL1        0.0232
     29 H          -4.9209    2.5713   -1.9700 H       1  UNL1        0.0232
     30 H          -3.6156    3.1312   -0.9523 H       1  UNL1        0.0232
     31 H          -4.2996    1.6296    0.7415 H       1  UNL1        0.0299
     32 H          -6.2028    0.5634   -1.4407 H       1  UNL1        0.0268
     33 H          -6.7385    1.1024    0.0610 H       1  UNL1        0.0268
     34 H          -6.1515   -1.4818   -0.2368 H       1  UNL1        0.0284
     35 H          -5.6146   -0.7508    1.2148 H       1  UNL1        0.0284
     36 H          -3.9737   -1.7083   -1.0345 H       1  UNL1        0.0540
     37 H          -2.1657   -3.7096   -0.1799 H       1  UNL1        0.0636
     38 H          -0.0238   -4.4925   -0.8895 H       1  UNL1        0.0618
     39 H           1.9325   -3.1254   -0.6433 H       1  UNL1        0.0625
     40 H           1.2640    1.0684    0.9347 H       1  UNL1        0.1290
     41 H           6.5626    3.3512   -0.0971 H       1  UNL1        0.0639
     42 H           8.7235    2.3416   -0.4946 H       1  UNL1        0.0619
     43 H           9.0286   -0.0386   -0.2799 H       1  UNL1        0.0633
     44 H           7.0804   -1.4274    0.3399 H       1  UNL1        0.0830
     45 H          -0.4251   -0.1444    1.0463 H       1  UNL1        0.0644
     46 H          -2.6019    0.5877   -0.6890 H       1  UNL1        0.0286
     47 H          -3.6673    0.3805   -1.9940 H       1  UNL1        0.0286
@<TRIPOS>UNITY_ATOM_ATTR
17 1
charge -1
@<TRIPOS>BOND
     1     1     2    1
     2     2     3    1
     3     2    27    1
     4     3     4    1
     5     4     5    1
     6     5     6    1
     7     5    27    1
     8     6     7    2
     9     6     8    2
    10     6     9    1
    11     9    10   ar
    12     9    26   ar
    13    10    11   ar
    14    11    12   ar
    15    12    13   ar
    16    13    14    1
    17    13    26   ar
    18    14    15    2
    19    14    16   am
    20    16    17    1
    21    17    18    1
    22    18    19    2
    23    18    20    1
    24    20    21   ar
    25    20    25   ar
    26    21    22   ar
    27    22    23   ar
    28    23    24   ar
    29    24    25   ar
    30     1    28    1
    31     1    29    1
    32     1    30    1
    33     2    31    1
    34     3    32    1
    35     3    33    1
    36     4    34    1
    37     4    35    1
    38     5    36    1
    39    10    37    1
    40    11    38    1
    41    12    39    1
    42    16    40    1
    43    21    41    1
    44    22    42    1
    45    23    43    1
    46    24    44    1
    47    26    45    1
    48    27    46    1
    49    27    47    1
@<TRIPOS>MOLECULE
../data/bude_mols_rdkit_confs_charged/molecule_87.pdb
 47 49 0 0 0
SMALL
GASTEIGER

@<TRIPOS>ATOM
      1  C1        -6.4060    1.1760    0.4970 C.3     1  UNL1       -0.0624
      2  C2        -5.4150    0.0210    0.4460 C.3     1  UNL1       -0.0421
      3  C3        -5.9270   -1.1210   -0.3880 C.3     1  UNL1       -0.0487
      4  C4        -4.6560   -1.8730   -0.7500 C.3     1  UNL1       -0.0301
      5  C5        -3.5200   -0.9450   -0.5400 C.3     1  UNL1        0.0822
      6  S1        -2.4710   -1.3720    0.8410 S.O2    1  UNL1       -0.0002
      7  O1        -1.6860   -2.6120    0.5560 O.2     1  UNL1       -0.1691
      8  O2        -3.3050   -1.6140    2.0750 O.2     1  UNL1       -0.1691
      9  C6        -1.3730   -0.0260    1.0710 C.ar    1  UNL1        0.0892
     10  C7        -1.5720    0.9300    2.0540 C.ar    1  UNL1       -0.0368
     11  C8        -0.6990    1.9790    2.1710 C.ar    1  UNL1       -0.0592
     12  C9         0.3930    2.0800    1.2950 C.ar    1  UNL1       -0.0496
     13  C10        0.6050    1.1400    0.3150 C.ar    1  UNL1        0.0374
     14  C11        1.7000    1.2350   -0.6380 C.2     1  UNL1        0.2305
     15  O3         1.7560    2.2410   -1.4210 O.2     1  UNL1       -0.2714
     16  N1         2.7420    0.2870   -0.7910 N.am    1  UNL1       -0.3921
     17  N2         3.7520    0.3910   -1.7110 N.am    1  UNL1       -0.5551
     18  C12        5.0360    0.8440   -1.4340 C.2     1  UNL1        0.1081
     19  O4         5.2630    2.1110   -1.3630 O.2     1  UNL1       -0.3106
     20  C13        6.2200    0.0080   -1.2090 C.ar    1  UNL1        0.0884
     21  C14        7.4580    0.5770   -1.0300 C.ar    1  UNL1       -0.0344
     22  C15        8.5950   -0.2160   -0.8730 C.ar    1  UNL1       -0.0583
     23  C16        8.5030   -1.5860   -0.8940 C.ar    1  UNL1       -0.0436
     24  C17        7.2320   -2.1320   -1.0770 C.ar    1  UNL1        0.0283
     25  N3         6.1720   -1.3260   -1.2220 N.ar    1  UNL1       -0.2536
     26  C18       -0.2900    0.0850    0.2160 C.ar    1  UNL1       -0.0248
     27  C19       -4.1340    0.4220   -0.2250 C.3     1  UNL1       -0.0277
     28 H          -7.3045    0.8540    0.9807 H       1  UNL1        0.0232
     29 H          -6.6320    1.4963   -0.4986 H       1  UNL1        0.0232
     30 H          -5.9779    1.9894    1.0448 H       1  UNL1        0.0232
     31 H          -5.2697   -0.2602    1.4681 H       1  UNL1        0.0299
     32 H          -6.4262   -0.7641   -1.2646 H       1  UNL1        0.0268
     33 H          -6.6464   -1.7274    0.1216 H       1  UNL1        0.0268
     34 H          -4.6922   -2.1817   -1.7739 H       1  UNL1        0.0284
     35 H          -4.5476   -2.7478   -0.1435 H       1  UNL1        0.0284
     36 H          -2.9107   -0.9737   -1.4191 H       1  UNL1        0.0540
     37 H          -2.3759    0.8519    2.6964 H       1  UNL1        0.0636
     38 H          -0.8438    2.6934    2.9015 H       1  UNL1        0.0618
     39 H           1.0471    2.8727    1.3883 H       1  UNL1        0.0625
     40 H           2.7401   -0.4982   -0.1971 H       1  UNL1        0.1290
     41 H           7.5479    1.6049   -1.0115 H       1  UNL1        0.0639
     42 H           9.5152    0.2318   -0.7396 H       1  UNL1        0.0619
     43 H           9.3359   -2.1845   -0.7796 H       1  UNL1        0.0633
     44 H           7.1087   -3.1563   -1.1006 H       1  UNL1        0.0830
     45 H          -0.1453   -0.6330   -0.5110 H       1  UNL1        0.0644
     46 H          -3.5090    0.9903    0.4317 H       1  UNL1        0.0286
     47 H          -4.2655    1.0511   -1.0805 H       1  UNL1        0.0286
@<TRIPOS>UNITY_ATOM_ATTR
17 1
charge -1
@<TRIPOS>BOND
     1     1     2    1
     2     2     3    1
     3     2    27    1
     4     3     4    1
     5     4     5    1
     6     5     6    1
     7     5    27    1
     8     6     7    2
     9     6     8    2
    10     6     9    1
    11     9    10   ar
    12     9    26   ar
    13    10    11   ar
    14    11    12   ar
    15    12    13   ar
    16    13    14    1
    17    13    26   ar
    18    14    15    2
    19    14    16   am
    20    16    17    1
    21    17    18    1
    22    18    19    2
    23    18    20    1
    24    20    21   ar
    25    20    25   ar
    26    21    22   ar
    27    22    23   ar
    28    23    24   ar
    29    24    25   ar
    30     1    28    1
    31     1    29    1
    32     1    30    1
    33     2    31    1
    34     3    32    1
    35     3    33    1
    36     4    34    1
    37     4    35    1
    38     5    36    1
    39    10    37    1
    40    11    38    1
    41    12    39    1
    42    16    40    1
    43    21    41    1
    44    22    42    1
    45    23    43    1
    46    24    44    1
    47    26    45    1
    48    27    46    1
    49    27    47    1
