@<TRIPOS>MOLECULE
../data/bude_mols_rdkit_confs_charged/molecule_26.pdb
 31 32 0 0 0
SMALL
GASTEIGER

@<TRIPOS>ATOM
      1  N1        -1.9690   -2.9460   -0.2200 N.3     1  UNL1       -0.2035
      2  S1        -1.1240   -1.4860   -0.6310 S.O2    1  UNL1        0.0548
      3  O1         0.2040   -1.6160    0.1140 O.2     1  UNL1       -0.1533
      4  O2        -0.8940   -1.3190   -2.0750 O.2     1  UNL1       -0.1533
      5  C1        -1.9610   -0.1120    0.0630 C.ar    1  UNL1        0.0908
      6  C2        -2.9970   -0.4150    0.9630 C.ar    1  UNL1       -0.0366
      7  C3        -3.6980    0.5950    1.5450 C.ar    1  UNL1       -0.0600
      8  C4        -3.3850    1.8960    1.2480 C.ar    1  UNL1       -0.0628
      9  C5        -2.3850    2.1890    0.3810 C.ar    1  UNL1       -0.0743
     10  C6        -1.6260    1.1810   -0.2520 C.ar    1  UNL1       -0.1024
     11  N2        -0.6230    1.5310   -1.1180 N.pl3   1  UNL1       -0.5351
     12  S2         0.9950    1.8860   -1.0710 S.O2    1  UNL1       -0.0533
     13  O3         1.4290    2.2340   -2.5110 O.2     1  UNL1       -0.1840
     14  O4         1.2950    3.1770   -0.3150 O.2     1  UNL1       -0.1840
     15  C7         2.1080    0.7000   -0.5270 C.ar    1  UNL1        0.1486
     16  C8         2.4950    0.5650    0.8000 C.ar    1  UNL1        0.1875
     17  F1         1.9390    1.4340    1.6770 F       1  UNL1       -0.2003
     18  C9         3.3860   -0.3830    1.2380 C.ar    1  UNL1        0.1982
     19  F2         3.7400   -0.4830    2.5460 F       1  UNL1       -0.1993
     20  C10        3.9430   -1.2610    0.3290 C.ar    1  UNL1        0.1992
     21  F3         4.8340   -2.2200    0.7140 F       1  UNL1       -0.1993
     22  C11        3.5720   -1.1410   -0.9910 C.ar    1  UNL1        0.1982
     23  F4         4.0960   -1.9890   -1.9350 F       1  UNL1       -0.1993
     24  C12        2.6840   -0.1960   -1.4230 C.ar    1  UNL1        0.1875
     25  F5         2.3480   -0.1220   -2.7510 F       1  UNL1       -0.2003
     26 H          -1.4819   -3.7460   -0.6239 H       1  UNL1        0.1442
     27 H          -2.9189   -2.9045   -0.5892 H       1  UNL1        0.1442
     28 H          -3.2245   -1.3977    1.1810 H       1  UNL1        0.0637
     29 H          -4.4612    0.3829    2.2065 H       1  UNL1        0.0618
     30 H          -3.9172    2.6619    1.6899 H       1  UNL1        0.0617
     31 H          -2.1723    3.1782    0.1777 H       1  UNL1        0.0606
@<TRIPOS>UNITY_ATOM_ATTR
11 1
charge -1
@<TRIPOS>BOND
     1     1     2    1
     2     2     3    2
     3     2     4    2
     4     2     5    1
     5     5     6   ar
     6     5    10   ar
     7     6     7   ar
     8     7     8   ar
     9     8     9   ar
    10     9    10   ar
    11    10    11    1
    12    11    12    1
    13    12    13    2
    14    12    14    2
    15    12    15    1
    16    15    16   ar
    17    15    24   ar
    18    16    17    1
    19    16    18   ar
    20    18    19    1
    21    18    20   ar
    22    20    21    1
    23    20    22   ar
    24    22    23    1
    25    22    24   ar
    26    24    25    1
    27     1    26    1
    28     1    27    1
    29     6    28    1
    30     7    29    1
    31     8    30    1
    32     9    31    1
@<TRIPOS>MOLECULE
../data/bude_mols_rdkit_confs_charged/molecule_26.pdb
 31 32 0 0 0
SMALL
GASTEIGER

@<TRIPOS>ATOM
      1  N1        -2.0220   -1.9710    1.4500 N.3     1  UNL1       -0.2035
      2  S1        -1.4280   -0.3290    1.5770 S.O2    1  UNL1        0.0548
      3  O1        -0.0130   -0.2560    1.9580 O.2     1  UNL1       -0.1533
      4  O2        -2.2280    0.2640    2.7570 O.2     1  UNL1       -0.1533
      5  C1        -1.8810    0.4980    0.1240 C.ar    1  UNL1        0.0908
      6  C2        -2.5900    1.6820    0.2540 C.ar    1  UNL1       -0.0366
      7  C3        -3.0460    2.4070   -0.8110 C.ar    1  UNL1       -0.0600
      8  C4        -2.7810    1.9240   -2.0690 C.ar    1  UNL1       -0.0628
      9  C5        -2.0860    0.7620   -2.2350 C.ar    1  UNL1       -0.0743
     10  C6        -1.6150    0.0180   -1.1050 C.ar    1  UNL1       -0.1024
     11  N2        -0.8710   -1.1300   -1.3750 N.pl3   1  UNL1       -0.5351
     12  S2         0.7810   -1.2080   -1.6480 S.O2    1  UNL1       -0.0533
     13  O3         1.0820   -2.6630   -2.0780 O.2     1  UNL1       -0.1840
     14  O4         1.0720   -0.4370   -2.9590 O.2     1  UNL1       -0.1840
     15  C7         1.8660   -0.7170   -0.4160 C.ar    1  UNL1        0.1486
     16  C8         2.2640    0.5850   -0.2470 C.ar    1  UNL1        0.1875
     17  F1         1.7510    1.5170   -1.0860 F       1  UNL1       -0.2003
     18  C9         3.1550    0.9810    0.7300 C.ar    1  UNL1        0.1982
     19  F2         3.5350    2.2830    0.8780 F       1  UNL1       -0.1993
     20  C10        3.6900    0.0490    1.5960 C.ar    1  UNL1        0.1992
     21  F3         4.5730    0.4010    2.5730 F       1  UNL1       -0.1993
     22  C11        3.3020   -1.2650    1.4410 C.ar    1  UNL1        0.1982
     23  F4         3.8430   -2.1650    2.3060 F       1  UNL1       -0.1993
     24  C12        2.4110   -1.6620    0.4640 C.ar    1  UNL1        0.1875
     25  F5         2.0400   -2.9330    0.3200 F       1  UNL1       -0.2003
     26 H          -1.7719   -2.4891    2.2923 H       1  UNL1        0.1442
     27 H          -1.6034   -2.4220    0.6365 H       1  UNL1        0.1442
     28 H          -2.7836    2.0344    1.2045 H       1  UNL1        0.0637
     29 H          -3.5703    3.2854   -0.6748 H       1  UNL1        0.0618
     30 H          -3.1108    2.4450   -2.8965 H       1  UNL1        0.0617
     31 H          -1.8969    0.4140   -3.1880 H       1  UNL1        0.0606
@<TRIPOS>UNITY_ATOM_ATTR
11 1
charge -1
@<TRIPOS>BOND
     1     1     2    1
     2     2     3    2
     3     2     4    2
     4     2     5    1
     5     5     6   ar
     6     5    10   ar
     7     6     7   ar
     8     7     8   ar
     9     8     9   ar
    10     9    10   ar
    11    10    11    1
    12    11    12    1
    13    12    13    2
    14    12    14    2
    15    12    15    1
    16    15    16   ar
    17    15    24   ar
    18    16    17    1
    19    16    18   ar
    20    18    19    1
    21    18    20   ar
    22    20    21    1
    23    20    22   ar
    24    22    23    1
    25    22    24   ar
    26    24    25    1
    27     1    26    1
    28     1    27    1
    29     6    28    1
    30     7    29    1
    31     8    30    1
    32     9    31    1
@<TRIPOS>MOLECULE
../data/bude_mols_rdkit_confs_charged/molecule_26.pdb
 31 32 0 0 0
SMALL
GASTEIGER

@<TRIPOS>ATOM
      1  N1        -3.3310   -0.5250    2.5090 N.3     1  UNL1       -0.2035
      2  S1        -3.0640   -1.3200    1.0050 S.O2    1  UNL1        0.0548
      3  O1        -4.4720   -1.7360    0.5170 O.2     1  UNL1       -0.1533
      4  O2        -2.3310   -2.6060    1.1050 O.2     1  UNL1       -0.1533
      5  C1        -2.4460   -0.2500   -0.2250 C.ar    1  UNL1        0.0908
      6  C2        -3.1110   -0.1430   -1.4630 C.ar    1  UNL1       -0.0366
      7  C3        -2.6600    0.6940   -2.4490 C.ar    1  UNL1       -0.0600
      8  C4        -1.5230    1.4490   -2.2130 C.ar    1  UNL1       -0.0628
      9  C5        -0.8740    1.3430   -1.0040 C.ar    1  UNL1       -0.0743
     10  C6        -1.3180    0.4880    0.0280 C.ar    1  UNL1       -0.1024
     11  N2        -0.5790    0.4580    1.1900 N.pl3   1  UNL1       -0.5351
     12  S2         0.7370   -0.4470    1.7020 S.O2    1  UNL1       -0.0533
     13  O3         0.4370   -1.8880    1.8280 O.2     1  UNL1       -0.1840
     14  O4         1.1690    0.0760    3.0770 O.2     1  UNL1       -0.1840
     15  C7         2.1650   -0.2000    0.6860 C.ar    1  UNL1        0.1486
     16  C8         2.3970   -0.9950   -0.4160 C.ar    1  UNL1        0.1875
     17  F1         1.4920   -1.9660   -0.6820 F       1  UNL1       -0.2003
     18  C9         3.5060   -0.8270   -1.2340 C.ar    1  UNL1        0.1982
     19  F2         3.6750   -1.6510   -2.3120 F       1  UNL1       -0.1993
     20  C10        4.4050    0.1750   -0.9290 C.ar    1  UNL1        0.1992
     21  F3         5.5080    0.3570   -1.7260 F       1  UNL1       -0.1993
     22  C11        4.2040    0.9940    0.1710 C.ar    1  UNL1        0.1982
     23  F4         5.0880    1.9950    0.4890 F       1  UNL1       -0.1993
     24  C12        3.0760    0.7940    0.9710 C.ar    1  UNL1        0.1875
     25  F5         2.8520    1.5910    2.0670 F       1  UNL1       -0.2003
     26 H          -3.6908   -1.1951    3.1886 H       1  UNL1        0.1442
     27 H          -4.0088    0.2264    2.3808 H       1  UNL1        0.1442
     28 H          -3.9578   -0.7086   -1.6306 H       1  UNL1        0.0637
     29 H          -3.1578    0.7608   -3.3505 H       1  UNL1        0.0618
     30 H          -1.1644    2.0877   -2.9400 H       1  UNL1        0.0617
     31 H          -0.0278    1.9120   -0.8452 H       1  UNL1        0.0606
@<TRIPOS>UNITY_ATOM_ATTR
11 1
charge -1
@<TRIPOS>BOND
     1     1     2    1
     2     2     3    2
     3     2     4    2
     4     2     5    1
     5     5     6   ar
     6     5    10   ar
     7     6     7   ar
     8     7     8   ar
     9     8     9   ar
    10     9    10   ar
    11    10    11    1
    12    11    12    1
    13    12    13    2
    14    12    14    2
    15    12    15    1
    16    15    16   ar
    17    15    24   ar
    18    16    17    1
    19    16    18   ar
    20    18    19    1
    21    18    20   ar
    22    20    21    1
    23    20    22   ar
    24    22    23    1
    25    22    24   ar
    26    24    25    1
    27     1    26    1
    28     1    27    1
    29     6    28    1
    30     7    29    1
    31     8    30    1
    32     9    31    1
@<TRIPOS>MOLECULE
../data/bude_mols_rdkit_confs_charged/molecule_26.pdb
 31 32 0 0 0
SMALL
GASTEIGER

@<TRIPOS>ATOM
      1  N1        -0.4680    1.8350    0.2480 N.3     1  UNL1       -0.2035
      2  S1        -1.6790    1.5030   -0.8930 S.O2    1  UNL1        0.0548
      3  O1        -2.8200    2.4820   -0.7730 O.2     1  UNL1       -0.1533
      4  O2        -1.0670    1.7200   -2.2730 O.2     1  UNL1       -0.1533
      5  C1        -2.2810   -0.1350   -0.8470 C.ar    1  UNL1        0.0908
      6  C2        -3.6460   -0.2980   -0.5530 C.ar    1  UNL1       -0.0366
      7  C3        -4.2320   -1.5110   -0.5700 C.ar    1  UNL1       -0.0600
      8  C4        -3.4730   -2.6120   -0.8840 C.ar    1  UNL1       -0.0628
      9  C5        -2.1490   -2.4540   -1.1680 C.ar    1  UNL1       -0.0743
     10  C6        -1.4980   -1.1930   -1.1580 C.ar    1  UNL1       -0.1024
     11  N2        -0.1250   -1.1810   -1.3870 N.pl3   1  UNL1       -0.5351
     12  S2         1.0490   -1.4410   -0.2120 S.O2    1  UNL1       -0.0533
     13  O3         1.8970   -2.6560   -0.6570 O.2     1  UNL1       -0.1840
     14  O4         0.3490   -1.9000    1.0880 O.2     1  UNL1       -0.1840
     15  C7         2.1300   -0.2000    0.2150 C.ar    1  UNL1        0.1486
     16  C8         2.1150    0.5570    1.3640 C.ar    1  UNL1        0.1875
     17  F1         1.1460    0.2740    2.3020 F       1  UNL1       -0.2003
     18  C9         3.0310    1.5590    1.6100 C.ar    1  UNL1        0.1982
     19  F2         2.9910    2.2880    2.7500 F       1  UNL1       -0.1993
     20  C10        4.0190    1.8460    0.6930 C.ar    1  UNL1        0.1992
     21  F3         4.9380    2.8310    0.9090 F       1  UNL1       -0.1993
     22  C11        4.0600    1.1140   -0.4540 C.ar    1  UNL1        0.1982
     23  F4         5.0330    1.3800   -1.3800 F       1  UNL1       -0.1993
     24  C12        3.1520    0.1260   -0.6880 C.ar    1  UNL1        0.1875
     25  F5         3.2530   -0.5600   -1.8480 F       1  UNL1       -0.2003
     26 H          -0.1718    2.8067    0.1564 H       1  UNL1        0.1442
     27 H           0.3293    1.2198    0.0863 H       1  UNL1        0.1442
     28 H          -4.2130    0.5318   -0.3184 H       1  UNL1        0.0637
     29 H          -5.2354   -1.6114   -0.3506 H       1  UNL1        0.0618
     30 H          -3.9013   -3.5507   -0.9047 H       1  UNL1        0.0617
     31 H          -1.5934   -3.2917   -1.4015 H       1  UNL1        0.0606
@<TRIPOS>UNITY_ATOM_ATTR
11 1
charge -1
@<TRIPOS>BOND
     1     1     2    1
     2     2     3    2
     3     2     4    2
     4     2     5    1
     5     5     6   ar
     6     5    10   ar
     7     6     7   ar
     8     7     8   ar
     9     8     9   ar
    10     9    10   ar
    11    10    11    1
    12    11    12    1
    13    12    13    2
    14    12    14    2
    15    12    15    1
    16    15    16   ar
    17    15    24   ar
    18    16    17    1
    19    16    18   ar
    20    18    19    1
    21    18    20   ar
    22    20    21    1
    23    20    22   ar
    24    22    23    1
    25    22    24   ar
    26    24    25    1
    27     1    26    1
    28     1    27    1
    29     6    28    1
    30     7    29    1
    31     8    30    1
    32     9    31    1
@<TRIPOS>MOLECULE
../data/bude_mols_rdkit_confs_charged/molecule_26.pdb
 31 32 0 0 0
SMALL
GASTEIGER

@<TRIPOS>ATOM
      1  N1        -4.7110    0.9190    0.9400 N.3     1  UNL1       -0.2035
      2  S1        -3.0350    1.4070    0.7100 S.O2    1  UNL1        0.0548
      3  O1        -3.0670    2.8110    0.2370 O.2     1  UNL1       -0.1533
      4  O2        -2.4670    1.2910    2.1220 O.2     1  UNL1       -0.1533
      5  C1        -2.2720    0.3050   -0.3780 C.ar    1  UNL1        0.0908
      6  C2        -3.0030   -0.8170   -0.7900 C.ar    1  UNL1       -0.0366
      7  C3        -2.5280   -1.7430   -1.6620 C.ar    1  UNL1       -0.0600
      8  C4        -1.2620   -1.5510   -2.1570 C.ar    1  UNL1       -0.0628
      9  C5        -0.5210   -0.4640   -1.7740 C.ar    1  UNL1       -0.0743
     10  C6        -1.0030    0.5040   -0.8680 C.ar    1  UNL1       -0.1024
     11  N2        -0.1550    1.5650   -0.5160 N.pl3   1  UNL1       -0.5351
     12  S2         0.9890    1.6350    0.7110 S.O2    1  UNL1       -0.0533
     13  O3         0.4290    1.3860    2.0640 O.2     1  UNL1       -0.1840
     14  O4         1.6920    2.9960    0.6630 O.2     1  UNL1       -0.1840
     15  C7         2.2740    0.4370    0.5020 C.ar    1  UNL1        0.1486
     16  C8         2.2250   -0.8180    1.0310 C.ar    1  UNL1        0.1875
     17  F1         1.1410   -1.1700    1.7600 F       1  UNL1       -0.2003
     18  C9         3.2890   -1.6780    0.7990 C.ar    1  UNL1        0.1982
     19  F2         3.2650   -2.9300    1.3130 F       1  UNL1       -0.1993
     20  C10        4.3970   -1.3130    0.0510 C.ar    1  UNL1        0.1992
     21  F3         5.4290   -2.1690   -0.1660 F       1  UNL1       -0.1993
     22  C11        4.4350   -0.0430   -0.4780 C.ar    1  UNL1        0.1982
     23  F4         5.5020    0.3480   -1.2130 F       1  UNL1       -0.1993
     24  C12        3.3640    0.8210   -0.2430 C.ar    1  UNL1        0.1875
     25  F5         3.4800    2.0610   -0.8030 F       1  UNL1       -0.2003
     26 H          -5.1685    1.5661    1.5822 H       1  UNL1        0.1442
     27 H          -4.7404   -0.0235    1.3288 H       1  UNL1        0.1442
     28 H          -3.9538   -0.9466   -0.4102 H       1  UNL1        0.0637
     29 H          -3.0957   -2.5583   -1.9414 H       1  UNL1        0.0618
     30 H          -0.8649   -2.2315   -2.8235 H       1  UNL1        0.0617
     31 H           0.4276   -0.3488   -2.1638 H       1  UNL1        0.0606
@<TRIPOS>UNITY_ATOM_ATTR
11 1
charge -1
@<TRIPOS>BOND
     1     1     2    1
     2     2     3    2
     3     2     4    2
     4     2     5    1
     5     5     6   ar
     6     5    10   ar
     7     6     7   ar
     8     7     8   ar
     9     8     9   ar
    10     9    10   ar
    11    10    11    1
    12    11    12    1
    13    12    13    2
    14    12    14    2
    15    12    15    1
    16    15    16   ar
    17    15    24   ar
    18    16    17    1
    19    16    18   ar
    20    18    19    1
    21    18    20   ar
    22    20    21    1
    23    20    22   ar
    24    22    23    1
    25    22    24   ar
    26    24    25    1
    27     1    26    1
    28     1    27    1
    29     6    28    1
    30     7    29    1
    31     8    30    1
    32     9    31    1
@<TRIPOS>MOLECULE
../data/bude_mols_rdkit_confs_charged/molecule_26.pdb
 31 32 0 0 0
SMALL
GASTEIGER

@<TRIPOS>ATOM
      1  N1        -4.7470   -0.4410    0.8400 N.3     1  UNL1       -0.2035
      2  S1        -3.2320   -1.2390    0.4370 S.O2    1  UNL1        0.0548
      3  O1        -3.6320   -2.3080   -0.5770 O.2     1  UNL1       -0.1533
      4  O2        -2.6960   -1.8780    1.6460 O.2     1  UNL1       -0.1533
      5  C1        -2.1960   -0.0690   -0.3300 C.ar    1  UNL1        0.0908
      6  C2        -2.6830    1.2250   -0.5520 C.ar    1  UNL1       -0.0366
      7  C3        -1.9700    2.1720   -1.2230 C.ar    1  UNL1       -0.0600
      8  C4        -0.7260    1.8150   -1.6880 C.ar    1  UNL1       -0.0628
      9  C5        -0.1840    0.5690   -1.5070 C.ar    1  UNL1       -0.0743
     10  C6        -0.9550   -0.3790   -0.8060 C.ar    1  UNL1       -0.1024
     11  N2        -0.3350   -1.6070   -0.5520 N.pl3   1  UNL1       -0.5351
     12  S2         0.6950   -1.8180    0.7990 S.O2    1  UNL1       -0.0533
     13  O3         1.2020   -3.2500    0.7440 O.2     1  UNL1       -0.1840
     14  O4         0.1140   -1.5640    2.1240 O.2     1  UNL1       -0.1840
     15  C7         2.0720   -0.7130    0.6180 C.ar    1  UNL1        0.1486
     16  C8         2.0650    0.5570    1.1110 C.ar    1  UNL1        0.1875
     17  F1         0.9840    1.0140    1.7640 F       1  UNL1       -0.2003
     18  C9         3.1950    1.3530    0.9190 C.ar    1  UNL1        0.1982
     19  F2         3.2280    2.6180    1.3920 F       1  UNL1       -0.1993
     20  C10        4.3030    0.8850    0.2500 C.ar    1  UNL1        0.1992
     21  F3         5.4110    1.6740    0.0650 F       1  UNL1       -0.1993
     22  C11        4.2850   -0.3890   -0.2330 C.ar    1  UNL1        0.1982
     23  F4         5.3540   -0.8830   -0.8950 F       1  UNL1       -0.1993
     24  C12        3.1670   -1.2070   -0.0560 C.ar    1  UNL1        0.1875
     25  F5         3.1700   -2.4630   -0.5410 F       1  UNL1       -0.2003
     26 H          -5.3728   -1.1078    1.2919 H       1  UNL1        0.1442
     27 H          -5.1831   -0.0891   -0.0123 H       1  UNL1        0.1442
     28 H          -3.6189    1.4708   -0.1931 H       1  UNL1        0.0637
     29 H          -2.3483    3.1198   -1.3763 H       1  UNL1        0.0618
     30 H          -0.1727    2.5206   -2.1989 H       1  UNL1        0.0617
     31 H           0.7530    0.3344   -1.8704 H       1  UNL1        0.0606
@<TRIPOS>UNITY_ATOM_ATTR
11 1
charge -1
@<TRIPOS>BOND
     1     1     2    1
     2     2     3    2
     3     2     4    2
     4     2     5    1
     5     5     6   ar
     6     5    10   ar
     7     6     7   ar
     8     7     8   ar
     9     8     9   ar
    10     9    10   ar
    11    10    11    1
    12    11    12    1
    13    12    13    2
    14    12    14    2
    15    12    15    1
    16    15    16   ar
    17    15    24   ar
    18    16    17    1
    19    16    18   ar
    20    18    19    1
    21    18    20   ar
    22    20    21    1
    23    20    22   ar
    24    22    23    1
    25    22    24   ar
    26    24    25    1
    27     1    26    1
    28     1    27    1
    29     6    28    1
    30     7    29    1
    31     8    30    1
    32     9    31    1
@<TRIPOS>MOLECULE
../data/bude_mols_rdkit_confs_charged/molecule_26.pdb
 31 32 0 0 0
SMALL
GASTEIGER

@<TRIPOS>ATOM
      1  N1        -0.1510    0.7840    1.7010 N.3     1  UNL1       -0.2035
      2  S1        -1.7570    0.8230    1.1530 S.O2    1  UNL1        0.0548
      3  O1        -2.5830    1.8620    1.8480 O.2     1  UNL1       -0.1533
      4  O2        -2.3920   -0.5280    1.4950 O.2     1  UNL1       -0.1533
      5  C1        -1.8600    0.9850   -0.5810 C.ar    1  UNL1        0.0908
      6  C2        -2.3510    2.2280   -1.0160 C.ar    1  UNL1       -0.0366
      7  C3        -2.4910    2.5090   -2.3540 C.ar    1  UNL1       -0.0600
      8  C4        -2.1470    1.5650   -3.2990 C.ar    1  UNL1       -0.0628
      9  C5        -1.6700    0.3580   -2.8640 C.ar    1  UNL1       -0.0743
     10  C6        -1.5120    0.0320   -1.4920 C.ar    1  UNL1       -0.1024
     11  N2        -1.0260   -1.2020   -1.1840 N.pl3   1  UNL1       -0.5351
     12  S2         0.4060   -1.9810   -0.9360 S.O2    1  UNL1       -0.0533
     13  O3         1.1860   -1.9670   -2.2690 O.2     1  UNL1       -0.1840
     14  O4         0.0920   -3.4820   -0.7500 O.2     1  UNL1       -0.1840
     15  C7         1.4560   -1.5180    0.3270 C.ar    1  UNL1        0.1486
     16  C8         2.4150   -0.5570    0.1360 C.ar    1  UNL1        0.1875
     17  F1         2.5900    0.0880   -1.0450 F       1  UNL1       -0.2003
     18  C9         3.2620   -0.1960    1.1550 C.ar    1  UNL1        0.1982
     19  F2         4.2110    0.7540    0.9680 F       1  UNL1       -0.1993
     20  C10        3.1900   -0.7760    2.4090 C.ar    1  UNL1        0.1992
     21  F3         4.0340   -0.4140    3.4180 F       1  UNL1       -0.1993
     22  C11        2.2170   -1.7330    2.5590 C.ar    1  UNL1        0.1982
     23  F4         2.1320   -2.3200    3.7990 F       1  UNL1       -0.1993
     24  C12        1.3510   -2.1190    1.5570 C.ar    1  UNL1        0.1875
     25  F5         0.4220   -3.0810    1.8200 F       1  UNL1       -0.2003
     26 H          -0.1405    0.6887    2.7165 H       1  UNL1        0.1442
     27 H           0.3199    1.6491    1.4358 H       1  UNL1        0.1442
     28 H          -2.6111    2.9425   -0.3182 H       1  UNL1        0.0637
     29 H          -2.8541    3.4278   -2.6522 H       1  UNL1        0.0618
     30 H          -2.2466    1.7634   -4.3068 H       1  UNL1        0.0617
     31 H          -1.4124   -0.3503   -3.5690 H       1  UNL1        0.0606
@<TRIPOS>UNITY_ATOM_ATTR
11 1
charge -1
@<TRIPOS>BOND
     1     1     2    1
     2     2     3    2
     3     2     4    2
     4     2     5    1
     5     5     6   ar
     6     5    10   ar
     7     6     7   ar
     8     7     8   ar
     9     8     9   ar
    10     9    10   ar
    11    10    11    1
    12    11    12    1
    13    12    13    2
    14    12    14    2
    15    12    15    1
    16    15    16   ar
    17    15    24   ar
    18    16    17    1
    19    16    18   ar
    20    18    19    1
    21    18    20   ar
    22    20    21    1
    23    20    22   ar
    24    22    23    1
    25    22    24   ar
    26    24    25    1
    27     1    26    1
    28     1    27    1
    29     6    28    1
    30     7    29    1
    31     8    30    1
    32     9    31    1
@<TRIPOS>MOLECULE
../data/bude_mols_rdkit_confs_charged/molecule_26.pdb
 31 32 0 0 0
SMALL
GASTEIGER

@<TRIPOS>ATOM
      1  N1        -2.3750   -2.8690   -0.2000 N.3     1  UNL1       -0.2035
      2  S1        -3.2920   -1.5130    0.2130 S.O2    1  UNL1        0.0548
      3  O1        -3.7780   -1.5720    1.6570 O.2     1  UNL1       -0.1533
      4  O2        -4.5720   -1.5760   -0.6030 O.2     1  UNL1       -0.1533
      5  C1        -2.5110    0.0300   -0.0200 C.ar    1  UNL1        0.0908
      6  C2        -3.0760    0.8750   -0.9930 C.ar    1  UNL1       -0.0366
      7  C3        -2.5480    2.1180   -1.2090 C.ar    1  UNL1       -0.0600
      8  C4        -1.4620    2.5120   -0.4550 C.ar    1  UNL1       -0.0628
      9  C5        -0.9110    1.6900    0.4910 C.ar    1  UNL1       -0.0743
     10  C6        -1.4340    0.4000    0.7360 C.ar    1  UNL1       -0.1024
     11  N2        -0.7580   -0.3440    1.6930 N.pl3   1  UNL1       -0.5351
     12  S2         0.5810   -1.3650    1.5770 S.O2    1  UNL1       -0.0533
     13  O3         0.9580   -1.8530    2.9680 O.2     1  UNL1       -0.1840
     14  O4         0.4550   -2.5400    0.6880 O.2     1  UNL1       -0.1840
     15  C7         2.0150   -0.4900    1.0210 C.ar    1  UNL1        0.1486
     16  C8         2.9030    0.1180    1.8600 C.ar    1  UNL1        0.1875
     17  F1         2.6870    0.0560    3.1990 F       1  UNL1       -0.2003
     18  C9         4.0110    0.7910    1.3590 C.ar    1  UNL1        0.1982
     19  F2         4.8810    1.3900    2.2330 F       1  UNL1       -0.1993
     20  C10        4.2100    0.8420    0.0010 C.ar    1  UNL1        0.1992
     21  F3         5.3130    1.5150   -0.4460 F       1  UNL1       -0.1993
     22  C11        3.3270    0.2350   -0.8630 C.ar    1  UNL1        0.1982
     23  F4         3.5610    0.3100   -2.1950 F       1  UNL1       -0.1993
     24  C12        2.2300   -0.4290   -0.3300 C.ar    1  UNL1        0.1875
     25  F5         1.3770   -1.0170   -1.2110 F       1  UNL1       -0.2003
     26 H          -2.9201   -3.7136   -0.0271 H       1  UNL1        0.1442
     27 H          -1.5262   -2.8905    0.3653 H       1  UNL1        0.1442
     28 H          -3.8888    0.5568   -1.5436 H       1  UNL1        0.0637
     29 H          -2.9528    2.7470   -1.9200 H       1  UNL1        0.0618
     30 H          -1.0555    3.4482   -0.6076 H       1  UNL1        0.0617
     31 H          -0.0983    2.0185    1.0356 H       1  UNL1        0.0606
@<TRIPOS>UNITY_ATOM_ATTR
11 1
charge -1
@<TRIPOS>BOND
     1     1     2    1
     2     2     3    2
     3     2     4    2
     4     2     5    1
     5     5     6   ar
     6     5    10   ar
     7     6     7   ar
     8     7     8   ar
     9     8     9   ar
    10     9    10   ar
    11    10    11    1
    12    11    12    1
    13    12    13    2
    14    12    14    2
    15    12    15    1
    16    15    16   ar
    17    15    24   ar
    18    16    17    1
    19    16    18   ar
    20    18    19    1
    21    18    20   ar
    22    20    21    1
    23    20    22   ar
    24    22    23    1
    25    22    24   ar
    26    24    25    1
    27     1    26    1
    28     1    27    1
    29     6    28    1
    30     7    29    1
    31     8    30    1
    32     9    31    1
@<TRIPOS>MOLECULE
../data/bude_mols_rdkit_confs_charged/molecule_26.pdb
 31 32 0 0 0
SMALL
GASTEIGER

@<TRIPOS>ATOM
      1  N1        -0.0090    1.4810   -1.3030 N.3     1  UNL1       -0.2035
      2  S1        -1.5640    1.6470   -0.6750 S.O2    1  UNL1        0.0548
      3  O1        -1.6700    2.8210    0.2860 O.2     1  UNL1       -0.1533
      4  O2        -2.4930    2.0100   -1.8120 O.2     1  UNL1       -0.1533
      5  C1        -2.1340    0.1890    0.0970 C.ar    1  UNL1        0.0908
      6  C2        -3.1590   -0.5080   -0.5800 C.ar    1  UNL1       -0.0366
      7  C3        -3.6900   -1.6230    0.0060 C.ar    1  UNL1       -0.0600
      8  C4        -3.2400   -2.0580    1.2240 C.ar    1  UNL1       -0.0628
      9  C5        -2.2500   -1.3690    1.8560 C.ar    1  UNL1       -0.0743
     10  C6        -1.6450   -0.1940    1.3040 C.ar    1  UNL1       -0.1024
     11  N2        -0.6010    0.3740    2.0280 N.pl3   1  UNL1       -0.5351
     12  S2         1.0200   -0.0160    2.0170 S.O2    1  UNL1       -0.0533
     13  O3         1.7250    0.6710    3.2030 O.2     1  UNL1       -0.1840
     14  O4         1.1170   -1.5110    2.4320 O.2     1  UNL1       -0.1840
     15  C7         1.9620    0.1230    0.6050 C.ar    1  UNL1        0.1486
     16  C8         2.0000   -0.9240   -0.3070 C.ar    1  UNL1        0.1875
     17  F1         1.2590   -2.0530   -0.0840 F       1  UNL1       -0.2003
     18  C9         2.7720   -0.8590   -1.4470 C.ar    1  UNL1        0.1982
     19  F2         2.7570   -1.9340   -2.2990 F       1  UNL1       -0.1993
     20  C10        3.5430    0.2460   -1.7350 C.ar    1  UNL1        0.1992
     21  F3         4.2930    0.2800   -2.8650 F       1  UNL1       -0.1993
     22  C11        3.5160    1.2930   -0.8390 C.ar    1  UNL1        0.1982
     23  F4         4.2780    2.3900   -1.1210 F       1  UNL1       -0.1993
     24  C12        2.7500    1.2460    0.3060 C.ar    1  UNL1        0.1875
     25  F5         2.7190    2.2690    1.1880 F       1  UNL1       -0.2003
     26 H           0.2759    2.3568   -1.7413 H       1  UNL1        0.1442
     27 H          -0.0009    0.7345   -1.9981 H       1  UNL1        0.1442
     28 H          -3.5000   -0.1823   -1.4980 H       1  UNL1        0.0637
     29 H          -4.4396   -2.1436   -0.4757 H       1  UNL1        0.0618
     30 H          -3.6475   -2.9004    1.6590 H       1  UNL1        0.0617
     31 H          -1.9211   -1.7085    2.7734 H       1  UNL1        0.0606
@<TRIPOS>UNITY_ATOM_ATTR
11 1
charge -1
@<TRIPOS>BOND
     1     1     2    1
     2     2     3    2
     3     2     4    2
     4     2     5    1
     5     5     6   ar
     6     5    10   ar
     7     6     7   ar
     8     7     8   ar
     9     8     9   ar
    10     9    10   ar
    11    10    11    1
    12    11    12    1
    13    12    13    2
    14    12    14    2
    15    12    15    1
    16    15    16   ar
    17    15    24   ar
    18    16    17    1
    19    16    18   ar
    20    18    19    1
    21    18    20   ar
    22    20    21    1
    23    20    22   ar
    24    22    23    1
    25    22    24   ar
    26    24    25    1
    27     1    26    1
    28     1    27    1
    29     6    28    1
    30     7    29    1
    31     8    30    1
    32     9    31    1
@<TRIPOS>MOLECULE
../data/bude_mols_rdkit_confs_charged/molecule_26.pdb
 31 32 0 0 0
SMALL
GASTEIGER

@<TRIPOS>ATOM
      1  N1        -2.8660   -1.4180    2.1400 N.3     1  UNL1       -0.2035
      2  S1        -3.4500   -0.7070    0.7350 S.O2    1  UNL1        0.0548
      3  O1        -4.7620    0.0060    0.9940 O.2     1  UNL1       -0.1533
      4  O2        -3.8360   -1.8670   -0.2080 O.2     1  UNL1       -0.1533
      5  C1        -2.3720    0.2750   -0.1770 C.ar    1  UNL1        0.0908
      6  C2        -2.7960    1.6110   -0.3770 C.ar    1  UNL1       -0.0366
      7  C3        -2.0800    2.4580   -1.1850 C.ar    1  UNL1       -0.0600
      8  C4        -0.9340    1.9870   -1.8030 C.ar    1  UNL1       -0.0628
      9  C5        -0.5240    0.6930   -1.6060 C.ar    1  UNL1       -0.0743
     10  C6        -1.2510   -0.1960   -0.7730 C.ar    1  UNL1       -0.1024
     11  N2        -0.7230   -1.4700   -0.5110 N.pl3   1  UNL1       -0.5351
     12  S2         0.4490   -1.7200    0.6920 S.O2    1  UNL1       -0.0533
     13  O3        -0.0150   -1.1980    2.0080 O.2     1  UNL1       -0.1840
     14  O4         0.8190   -3.1700    0.7960 O.2     1  UNL1       -0.1840
     15  C7         1.9340   -0.8380    0.3360 C.ar    1  UNL1        0.1486
     16  C8         2.9410   -1.4130   -0.3980 C.ar    1  UNL1        0.1875
     17  F1         2.8360   -2.6680   -0.8740 F       1  UNL1       -0.2003
     18  C9         4.1120   -0.6870   -0.6660 C.ar    1  UNL1        0.1982
     19  F2         5.1260   -1.2250   -1.3890 F       1  UNL1       -0.1993
     20  C10        4.2510    0.6030   -0.1920 C.ar    1  UNL1        0.1992
     21  F3         5.3940    1.3130   -0.4530 F       1  UNL1       -0.1993
     22  C11        3.2510    1.1750    0.5380 C.ar    1  UNL1        0.1982
     23  F4         3.4310    2.4420    0.9820 F       1  UNL1       -0.1993
     24  C12        2.1030    0.4460    0.7930 C.ar    1  UNL1        0.1875
     25  F5         1.1320    1.0510    1.5230 F       1  UNL1       -0.2003
     26 H          -3.6063   -1.9678    2.5759 H       1  UNL1        0.1442
     27 H          -2.5570   -0.6914    2.7857 H       1  UNL1        0.1442
     28 H          -3.6516    1.9510    0.0893 H       1  UNL1        0.0637
     29 H          -2.3910    3.4313   -1.3299 H       1  UNL1        0.0618
     30 H          -0.3860    2.6122   -2.4144 H       1  UNL1        0.0617
     31 H           0.3327    0.3585   -2.0743 H       1  UNL1        0.0606
@<TRIPOS>UNITY_ATOM_ATTR
11 1
charge -1
@<TRIPOS>BOND
     1     1     2    1
     2     2     3    2
     3     2     4    2
     4     2     5    1
     5     5     6   ar
     6     5    10   ar
     7     6     7   ar
     8     7     8   ar
     9     8     9   ar
    10     9    10   ar
    11    10    11    1
    12    11    12    1
    13    12    13    2
    14    12    14    2
    15    12    15    1
    16    15    16   ar
    17    15    24   ar
    18    16    17    1
    19    16    18   ar
    20    18    19    1
    21    18    20   ar
    22    20    21    1
    23    20    22   ar
    24    22    23    1
    25    22    24   ar
    26    24    25    1
    27     1    26    1
    28     1    27    1
    29     6    28    1
    30     7    29    1
    31     8    30    1
    32     9    31    1
@<TRIPOS>MOLECULE
../data/bude_mols_rdkit_confs_charged/molecule_26.pdb
 31 32 0 0 0
SMALL
GASTEIGER

@<TRIPOS>ATOM
      1  N1        -3.5030   -1.9990    1.4120 N.3     1  UNL1       -0.2035
      2  S1        -3.0280   -1.8540   -0.2810 S.O2    1  UNL1        0.0548
      3  O1        -4.3310   -1.8210   -1.0870 O.2     1  UNL1       -0.1533
      4  O2        -2.2180   -3.0170   -0.6310 O.2     1  UNL1       -0.1533
      5  C1        -2.2870   -0.2960   -0.4060 C.ar    1  UNL1        0.0908
      6  C2        -2.8580    0.6340   -1.2710 C.ar    1  UNL1       -0.0366
      7  C3        -2.3880    1.9220   -1.3790 C.ar    1  UNL1       -0.0600
      8  C4        -1.3190    2.2850   -0.6000 C.ar    1  UNL1       -0.0628
      9  C5        -0.7180    1.4280    0.2600 C.ar    1  UNL1       -0.0743
     10  C6        -1.2280    0.1060    0.3440 C.ar    1  UNL1       -0.1024
     11  N2        -0.5400   -0.8100    1.1750 N.pl3   1  UNL1       -0.5351
     12  S2         0.8250   -1.6840    0.6120 S.O2    1  UNL1       -0.0533
     13  O3         1.3630   -2.5480    1.7240 O.2     1  UNL1       -0.1840
     14  O4         0.6060   -2.5180   -0.5960 O.2     1  UNL1       -0.1840
     15  C7         2.1100   -0.5470    0.1880 C.ar    1  UNL1        0.1486
     16  C8         2.1480   -0.0740   -1.0880 C.ar    1  UNL1        0.1875
     17  F1         1.2300   -0.4640   -1.9990 F       1  UNL1       -0.2003
     18  C9         3.1520    0.8130   -1.4110 C.ar    1  UNL1        0.1982
     19  F2         3.2070    1.2920   -2.6650 F       1  UNL1       -0.1993
     20  C10        4.0830    1.1920   -0.4380 C.ar    1  UNL1        0.1992
     21  F3         5.0680    2.0580   -0.7440 F       1  UNL1       -0.1993
     22  C11        4.0320    0.7040    0.8510 C.ar    1  UNL1        0.1982
     23  F4         4.9340    1.0680    1.8010 F       1  UNL1       -0.1993
     24  C12        3.0190   -0.1860    1.1650 C.ar    1  UNL1        0.1875
     25  F5         2.9570   -0.6740    2.4300 F       1  UNL1       -0.2003
     26 H          -3.9517   -2.9025    1.5631 H       1  UNL1        0.1442
     27 H          -4.1560   -1.2515    1.6471 H       1  UNL1        0.1442
     28 H          -3.6617    0.3468   -1.8511 H       1  UNL1        0.0637
     29 H          -2.8265    2.5952   -2.0267 H       1  UNL1        0.0618
     30 H          -0.9582    3.2492   -0.6719 H       1  UNL1        0.0617
     31 H           0.0848    1.7267    0.8356 H       1  UNL1        0.0606
@<TRIPOS>UNITY_ATOM_ATTR
11 1
charge -1
@<TRIPOS>BOND
     1     1     2    1
     2     2     3    2
     3     2     4    2
     4     2     5    1
     5     5     6   ar
     6     5    10   ar
     7     6     7   ar
     8     7     8   ar
     9     8     9   ar
    10     9    10   ar
    11    10    11    1
    12    11    12    1
    13    12    13    2
    14    12    14    2
    15    12    15    1
    16    15    16   ar
    17    15    24   ar
    18    16    17    1
    19    16    18   ar
    20    18    19    1
    21    18    20   ar
    22    20    21    1
    23    20    22   ar
    24    22    23    1
    25    22    24   ar
    26    24    25    1
    27     1    26    1
    28     1    27    1
    29     6    28    1
    30     7    29    1
    31     8    30    1
    32     9    31    1
@<TRIPOS>MOLECULE
../data/bude_mols_rdkit_confs_charged/molecule_26.pdb
 31 32 0 0 0
SMALL
GASTEIGER

@<TRIPOS>ATOM
      1  N1        -2.3720    2.5270   -0.5720 N.3     1  UNL1       -0.2035
      2  S1        -1.6480    1.0840   -1.2200 S.O2    1  UNL1        0.0548
      3  O1        -0.2800    1.3130   -1.6740 O.2     1  UNL1       -0.1533
      4  O2        -2.5550    0.7140   -2.4020 O.2     1  UNL1       -0.1533
      5  C1        -1.8430   -0.1990   -0.0630 C.ar    1  UNL1        0.0908
      6  C2        -2.6270    0.0820    1.0590 C.ar    1  UNL1       -0.0366
      7  C3        -2.9520   -0.8980    1.9640 C.ar    1  UNL1       -0.0600
      8  C4        -2.4880   -2.1790    1.7460 C.ar    1  UNL1       -0.0628
      9  C5        -1.7280   -2.4410    0.6590 C.ar    1  UNL1       -0.0743
     10  C6        -1.3640   -1.4640   -0.3010 C.ar    1  UNL1       -0.1024
     11  N2        -0.4600   -1.8440   -1.3180 N.pl3   1  UNL1       -0.5351
     12  S2         1.2110   -1.8890   -1.0830 S.O2    1  UNL1       -0.0533
     13  O3         1.5240   -2.8730    0.0670 O.2     1  UNL1       -0.1840
     14  O4         1.8630   -2.4760   -2.3510 O.2     1  UNL1       -0.1840
     15  C7         2.0420   -0.4430   -0.6810 C.ar    1  UNL1        0.1486
     16  C8         2.6650    0.2880   -1.6770 C.ar    1  UNL1        0.1875
     17  F1         2.6380   -0.1030   -2.9710 F       1  UNL1       -0.2003
     18  C9         3.3480    1.4610   -1.4000 C.ar    1  UNL1        0.1982
     19  F2         3.9620    2.1860   -2.3710 F       1  UNL1       -0.1993
     20  C10        3.4200    1.9260   -0.1040 C.ar    1  UNL1        0.1992
     21  F3         4.0820    3.0740    0.2050 F       1  UNL1       -0.1993
     22  C11        2.8070    1.2120    0.9020 C.ar    1  UNL1        0.1982
     23  F4         2.8690    1.6630    2.1980 F       1  UNL1       -0.1993
     24  C12        2.1250    0.0360    0.6080 C.ar    1  UNL1        0.1875
     25  F5         1.5280   -0.6440    1.6400 F       1  UNL1       -0.2003
     26 H          -2.2657    3.2903   -1.2402 H       1  UNL1        0.1442
     27 H          -1.9112    2.7750    0.3035 H       1  UNL1        0.1442
     28 H          -2.9681    1.0442    1.2102 H       1  UNL1        0.0637
     29 H          -3.5313   -0.6810    2.7901 H       1  UNL1        0.0618
     30 H          -2.7202   -2.9341    2.4100 H       1  UNL1        0.0617
     31 H          -1.3939   -3.4075    0.5204 H       1  UNL1        0.0606
@<TRIPOS>UNITY_ATOM_ATTR
11 1
charge -1
@<TRIPOS>BOND
     1     1     2    1
     2     2     3    2
     3     2     4    2
     4     2     5    1
     5     5     6   ar
     6     5    10   ar
     7     6     7   ar
     8     7     8   ar
     9     8     9   ar
    10     9    10   ar
    11    10    11    1
    12    11    12    1
    13    12    13    2
    14    12    14    2
    15    12    15    1
    16    15    16   ar
    17    15    24   ar
    18    16    17    1
    19    16    18   ar
    20    18    19    1
    21    18    20   ar
    22    20    21    1
    23    20    22   ar
    24    22    23    1
    25    22    24   ar
    26    24    25    1
    27     1    26    1
    28     1    27    1
    29     6    28    1
    30     7    29    1
    31     8    30    1
    32     9    31    1
@<TRIPOS>MOLECULE
../data/bude_mols_rdkit_confs_charged/molecule_26.pdb
 31 32 0 0 0
SMALL
GASTEIGER

@<TRIPOS>ATOM
      1  N1        -2.3730    2.4490   -1.4360 N.3     1  UNL1       -0.2035
      2  S1        -3.2230    1.4050   -0.4290 S.O2    1  UNL1        0.0548
      3  O1        -3.6250    2.1640    0.8420 O.2     1  UNL1       -0.1533
      4  O2        -4.5660    1.1360   -1.1020 O.2     1  UNL1       -0.1533
      5  C1        -2.4970   -0.1090   -0.0400 C.ar    1  UNL1        0.0908
      6  C2        -3.1080   -1.2880   -0.5180 C.ar    1  UNL1       -0.0366
      7  C3        -2.6320   -2.5410   -0.2500 C.ar    1  UNL1       -0.0600
      8  C4        -1.5000   -2.6770    0.5230 C.ar    1  UNL1       -0.0628
      9  C5        -0.8720   -1.5940    1.0080 C.ar    1  UNL1       -0.0743
     10  C6        -1.3770   -0.3020    0.7210 C.ar    1  UNL1       -0.1024
     11  N2        -0.6510    0.7730    1.2370 N.pl3   1  UNL1       -0.5351
     12  S2         0.6450    1.6540    0.6640 S.O2    1  UNL1       -0.0533
     13  O3         0.4160    2.4850   -0.5390 O.2     1  UNL1       -0.1840
     14  O4         1.0780    2.6410    1.7630 O.2     1  UNL1       -0.1840
     15  C7         2.1060    0.7130    0.4100 C.ar    1  UNL1        0.1486
     16  C8         3.0660    0.5110    1.3440 C.ar    1  UNL1        0.1875
     17  F1         2.8970    1.0660    2.5590 F       1  UNL1       -0.2003
     18  C9         4.1940   -0.2440    1.0720 C.ar    1  UNL1        0.1982
     19  F2         5.1500   -0.4390    2.0230 F       1  UNL1       -0.1993
     20  C10        4.3250   -0.7930   -0.1830 C.ar    1  UNL1        0.1992
     21  F3         5.4130   -1.5380   -0.4900 F       1  UNL1       -0.1993
     22  C11        3.3650   -0.6040   -1.1520 C.ar    1  UNL1        0.1982
     23  F4         3.5190   -1.1490   -2.3620 F       1  UNL1       -0.1993
     24  C12        2.2440    0.1590   -0.8500 C.ar    1  UNL1        0.1875
     25  F5         1.3090    0.3330   -1.8200 F       1  UNL1       -0.2003
     26 H          -2.9167    3.2999   -1.5804 H       1  UNL1        0.1442
     27 H          -2.2070    1.9950   -2.3342 H       1  UNL1        0.1442
     28 H          -3.9565   -1.1997   -1.0988 H       1  UNL1        0.0637
     29 H          -3.1143   -3.3741   -0.6219 H       1  UNL1        0.0618
     30 H          -1.1319   -3.6184    0.7309 H       1  UNL1        0.0617
     31 H          -0.0249   -1.7023    1.5875 H       1  UNL1        0.0606
@<TRIPOS>UNITY_ATOM_ATTR
11 1
charge -1
@<TRIPOS>BOND
     1     1     2    1
     2     2     3    2
     3     2     4    2
     4     2     5    1
     5     5     6   ar
     6     5    10   ar
     7     6     7   ar
     8     7     8   ar
     9     8     9   ar
    10     9    10   ar
    11    10    11    1
    12    11    12    1
    13    12    13    2
    14    12    14    2
    15    12    15    1
    16    15    16   ar
    17    15    24   ar
    18    16    17    1
    19    16    18   ar
    20    18    19    1
    21    18    20   ar
    22    20    21    1
    23    20    22   ar
    24    22    23    1
    25    22    24   ar
    26    24    25    1
    27     1    26    1
    28     1    27    1
    29     6    28    1
    30     7    29    1
    31     8    30    1
    32     9    31    1
@<TRIPOS>MOLECULE
../data/bude_mols_rdkit_confs_charged/molecule_26.pdb
 31 32 0 0 0
SMALL
GASTEIGER

@<TRIPOS>ATOM
      1  N1        -1.7970    2.2490   -2.0280 N.3     1  UNL1       -0.2035
      2  S1        -0.8340    0.9270   -1.4340 S.O2    1  UNL1        0.0548
      3  O1        -0.0410    0.3240   -2.5260 O.2     1  UNL1       -0.1533
      4  O2         0.0880    1.5830   -0.4060 O.2     1  UNL1       -0.1533
      5  C1        -1.8430   -0.2030   -0.5860 C.ar    1  UNL1        0.0908
      6  C2        -3.1660    0.2080   -0.3300 C.ar    1  UNL1       -0.0366
      7  C3        -4.0600   -0.5860    0.3380 C.ar    1  UNL1       -0.0600
      8  C4        -3.6340   -1.8250    0.7660 C.ar    1  UNL1       -0.0628
      9  C5        -2.3630   -2.2310    0.5240 C.ar    1  UNL1       -0.0743
     10  C6        -1.4040   -1.4340   -0.1670 C.ar    1  UNL1       -0.1024
     11  N2        -0.1570   -1.9100   -0.3730 N.pl3   1  UNL1       -0.5351
     12  S2         1.3570   -2.0370    0.2090 S.O2    1  UNL1       -0.0533
     13  O3         1.2980   -2.6700    1.6170 O.2     1  UNL1       -0.1840
     14  O4         2.2610   -2.9880   -0.5560 O.2     1  UNL1       -0.1840
     15  C7         2.1740   -0.5240    0.4370 C.ar    1  UNL1        0.1486
     16  C8         2.8960   -0.0130   -0.6140 C.ar    1  UNL1        0.1875
     17  F1         2.9580   -0.6810   -1.8070 F       1  UNL1       -0.2003
     18  C9         3.5580    1.1850   -0.4470 C.ar    1  UNL1        0.1982
     19  F2         4.2800    1.7170   -1.4650 F       1  UNL1       -0.1993
     20  C10        3.4880    1.8470    0.7570 C.ar    1  UNL1        0.1992
     21  F3         4.1300    3.0330    0.9590 F       1  UNL1       -0.1993
     22  C11        2.7700    1.3560    1.8300 C.ar    1  UNL1        0.1982
     23  F4         2.7250    2.0420    3.0090 F       1  UNL1       -0.1993
     24  C12        2.1110    0.1590    1.6550 C.ar    1  UNL1        0.1875
     25  F5         1.3940   -0.3870    2.6400 F       1  UNL1       -0.2003
     26 H          -1.1988    2.9090   -2.5249 H       1  UNL1        0.1442
     27 H          -2.2465    2.7215   -1.2437 H       1  UNL1        0.1442
     28 H          -3.4716    1.1380   -0.6566 H       1  UNL1        0.0637
     29 H          -5.0248   -0.2658    0.5158 H       1  UNL1        0.0618
     30 H          -4.2845   -2.4458    1.2724 H       1  UNL1        0.0617
     31 H          -2.0753   -3.1645    0.8570 H       1  UNL1        0.0606
@<TRIPOS>UNITY_ATOM_ATTR
11 1
charge -1
@<TRIPOS>BOND
     1     1     2    1
     2     2     3    2
     3     2     4    2
     4     2     5    1
     5     5     6   ar
     6     5    10   ar
     7     6     7   ar
     8     7     8   ar
     9     8     9   ar
    10     9    10   ar
    11    10    11    1
    12    11    12    1
    13    12    13    2
    14    12    14    2
    15    12    15    1
    16    15    16   ar
    17    15    24   ar
    18    16    17    1
    19    16    18   ar
    20    18    19    1
    21    18    20   ar
    22    20    21    1
    23    20    22   ar
    24    22    23    1
    25    22    24   ar
    26    24    25    1
    27     1    26    1
    28     1    27    1
    29     6    28    1
    30     7    29    1
    31     8    30    1
    32     9    31    1
@<TRIPOS>MOLECULE
../data/bude_mols_rdkit_confs_charged/molecule_26.pdb
 31 32 0 0 0
SMALL
GASTEIGER

@<TRIPOS>ATOM
      1  N1        -0.5250    2.3180    0.6230 N.3     1  UNL1       -0.2035
      2  S1        -0.9970    0.9690    1.5500 S.O2    1  UNL1        0.0548
      3  O1        -1.6130    1.4300    2.8720 O.2     1  UNL1       -0.1533
      4  O2         0.1660    0.1350    1.9120 O.2     1  UNL1       -0.1533
      5  C1        -2.1750   -0.0310    0.6980 C.ar    1  UNL1        0.0908
      6  C2        -3.3940   -0.3010    1.3520 C.ar    1  UNL1       -0.0366
      7  C3        -4.3600   -1.0430    0.7380 C.ar    1  UNL1       -0.0600
      8  C4        -4.1010   -1.5090   -0.5240 C.ar    1  UNL1       -0.0628
      9  C5        -2.9390   -1.2660   -1.1790 C.ar    1  UNL1       -0.0743
     10  C6        -1.9210   -0.4940   -0.5510 C.ar    1  UNL1       -0.1024
     11  N2        -0.7290   -0.2920   -1.2490 N.pl3   1  UNL1       -0.5351
     12  S2         0.6930   -1.1390   -1.3870 S.O2    1  UNL1       -0.0533
     13  O3         0.9740   -1.4780   -2.8650 O.2     1  UNL1       -0.1840
     14  O4         0.6140   -2.5110   -0.7200 O.2     1  UNL1       -0.1840
     15  C7         2.1250   -0.3710   -0.7570 C.ar    1  UNL1        0.1486
     16  C8         2.7340   -0.7510    0.4060 C.ar    1  UNL1        0.1875
     17  F1         2.2270   -1.8180    1.0770 F       1  UNL1       -0.2003
     18  C9         3.8510   -0.1480    0.9450 C.ar    1  UNL1        0.1982
     19  F2         4.4310   -0.5480    2.1010 F       1  UNL1       -0.1993
     20  C10        4.3880    0.9230    0.2440 C.ar    1  UNL1        0.1992
     21  F3         5.4770    1.5590    0.7100 F       1  UNL1       -0.1993
     22  C11        3.8210    1.3600   -0.9430 C.ar    1  UNL1        0.1982
     23  F4         4.3760    2.4200   -1.6120 F       1  UNL1       -0.1993
     24  C12        2.7090    0.7080   -1.4160 C.ar    1  UNL1        0.1875
     25  F5         2.1500    1.1260   -2.5690 F       1  UNL1       -0.2003
     26 H           0.1541    2.8699    1.1471 H       1  UNL1        0.1442
     27 H          -1.3427    2.8917    0.4167 H       1  UNL1        0.1442
     28 H          -3.5570    0.0655    2.3028 H       1  UNL1        0.0637
     29 H          -5.2558   -1.2465    1.2083 H       1  UNL1        0.0618
     30 H          -4.8245   -2.0715   -0.9985 H       1  UNL1        0.0617
     31 H          -2.7930   -1.6395   -2.1299 H       1  UNL1        0.0606
@<TRIPOS>UNITY_ATOM_ATTR
11 1
charge -1
@<TRIPOS>BOND
     1     1     2    1
     2     2     3    2
     3     2     4    2
     4     2     5    1
     5     5     6   ar
     6     5    10   ar
     7     6     7   ar
     8     7     8   ar
     9     8     9   ar
    10     9    10   ar
    11    10    11    1
    12    11    12    1
    13    12    13    2
    14    12    14    2
    15    12    15    1
    16    15    16   ar
    17    15    24   ar
    18    16    17    1
    19    16    18   ar
    20    18    19    1
    21    18    20   ar
    22    20    21    1
    23    20    22   ar
    24    22    23    1
    25    22    24   ar
    26    24    25    1
    27     1    26    1
    28     1    27    1
    29     6    28    1
    30     7    29    1
    31     8    30    1
    32     9    31    1
@<TRIPOS>MOLECULE
../data/bude_mols_rdkit_confs_charged/molecule_26.pdb
 31 32 0 0 0
SMALL
GASTEIGER

@<TRIPOS>ATOM
      1  N1        -2.5330    1.7550    1.8250 N.3     1  UNL1       -0.2035
      2  S1        -1.5280    1.4510    0.4070 S.O2    1  UNL1        0.0548
      3  O1        -0.1360    1.6330    0.9330 O.2     1  UNL1       -0.1533
      4  O2        -1.8720    2.4260   -0.6530 O.2     1  UNL1       -0.1533
      5  C1        -1.8510   -0.2120   -0.0680 C.ar    1  UNL1        0.0908
      6  C2        -2.6400   -1.0200    0.7650 C.ar    1  UNL1       -0.0366
      7  C3        -2.9690   -2.3150    0.4540 C.ar    1  UNL1       -0.0600
      8  C4        -2.5060   -2.8460   -0.7240 C.ar    1  UNL1       -0.0628
      9  C5        -1.7500   -2.0790   -1.5260 C.ar    1  UNL1       -0.0743
     10  C6        -1.3810   -0.7330   -1.2480 C.ar    1  UNL1       -0.1024
     11  N2        -0.5500   -0.0840   -2.1780 N.pl3   1  UNL1       -0.5351
     12  S2         1.1130   -0.1290   -2.2100 S.O2    1  UNL1       -0.0533
     13  O3         1.5420    0.6990   -3.4460 O.2     1  UNL1       -0.1840
     14  O4         1.5980   -1.5730   -2.4930 O.2     1  UNL1       -0.1840
     15  C7         2.0250    0.4790   -0.9040 C.ar    1  UNL1        0.1486
     16  C8         2.5230    1.7610   -0.8080 C.ar    1  UNL1        0.1875
     17  F1         2.2850    2.6260   -1.8110 F       1  UNL1       -0.2003
     18  C9         3.2430    2.1560    0.2790 C.ar    1  UNL1        0.1982
     19  F2         3.7560    3.4050    0.4260 F       1  UNL1       -0.1993
     20  C10        3.4910    1.2740    1.3120 C.ar    1  UNL1        0.1992
     21  F3         4.2180    1.6780    2.4040 F       1  UNL1       -0.1993
     22  C11        3.0160   -0.0120    1.2590 C.ar    1  UNL1        0.1982
     23  F4         3.2610   -0.8860    2.2810 F       1  UNL1       -0.1993
     24  C12        2.2930   -0.3880    0.1550 C.ar    1  UNL1        0.1875
     25  F5         1.8290   -1.6790    0.1260 F       1  UNL1       -0.2003
     26 H          -2.3862    2.7116    2.1470 H       1  UNL1        0.1442
     27 H          -2.2791    1.1035    2.5677 H       1  UNL1        0.1442
     28 H          -2.9883   -0.6222    1.6512 H       1  UNL1        0.0637
     29 H          -3.5524   -2.8782    1.0924 H       1  UNL1        0.0618
     30 H          -2.7347   -3.8170   -0.9885 H       1  UNL1        0.0617
     31 H          -1.4122   -2.4957   -2.4076 H       1  UNL1        0.0606
@<TRIPOS>UNITY_ATOM_ATTR
11 1
charge -1
@<TRIPOS>BOND
     1     1     2    1
     2     2     3    2
     3     2     4    2
     4     2     5    1
     5     5     6   ar
     6     5    10   ar
     7     6     7   ar
     8     7     8   ar
     9     8     9   ar
    10     9    10   ar
    11    10    11    1
    12    11    12    1
    13    12    13    2
    14    12    14    2
    15    12    15    1
    16    15    16   ar
    17    15    24   ar
    18    16    17    1
    19    16    18   ar
    20    18    19    1
    21    18    20   ar
    22    20    21    1
    23    20    22   ar
    24    22    23    1
    25    22    24   ar
    26    24    25    1
    27     1    26    1
    28     1    27    1
    29     6    28    1
    30     7    29    1
    31     8    30    1
    32     9    31    1
@<TRIPOS>MOLECULE
../data/bude_mols_rdkit_confs_charged/molecule_26.pdb
 31 32 0 0 0
SMALL
GASTEIGER

@<TRIPOS>ATOM
      1  N1        -3.5080    1.7580   -1.6220 N.3     1  UNL1       -0.2035
      2  S1        -3.2190    0.0330   -1.5830 S.O2    1  UNL1        0.0548
      3  O1        -4.5830   -0.6310   -1.5840 O.2     1  UNL1       -0.1533
      4  O2        -2.4170   -0.3620   -2.7410 O.2     1  UNL1       -0.1533
      5  C1        -2.3920   -0.2810   -0.0770 C.ar    1  UNL1        0.0908
      6  C2        -3.0070   -1.2250    0.7690 C.ar    1  UNL1       -0.0366
      7  C3        -2.4380   -1.4900    1.9860 C.ar    1  UNL1       -0.0600
      8  C4        -1.2960   -0.8690    2.4030 C.ar    1  UNL1       -0.0628
      9  C5        -0.6810    0.0510    1.5960 C.ar    1  UNL1       -0.0743
     10  C6        -1.2470    0.3420    0.3360 C.ar    1  UNL1       -0.1024
     11  N2        -0.5520    1.2520   -0.4630 N.pl3   1  UNL1       -0.5351
     12  S2         0.7100    0.9970   -1.5540 S.O2    1  UNL1       -0.0533
     13  O3         0.4220    0.1120   -2.6930 O.2     1  UNL1       -0.1840
     14  O4         1.2020    2.3450   -2.0820 O.2     1  UNL1       -0.1840
     15  C7         2.0710    0.3400   -0.6190 C.ar    1  UNL1        0.1486
     16  C8         2.2640   -1.0000   -0.4360 C.ar    1  UNL1        0.1875
     17  F1         1.3930   -1.8800   -0.9870 F       1  UNL1       -0.2003
     18  C9         3.3530   -1.4110    0.3130 C.ar    1  UNL1        0.1982
     19  F2         3.5810   -2.7430    0.5210 F       1  UNL1       -0.1993
     20  C10        4.2320   -0.5240    0.8690 C.ar    1  UNL1        0.1992
     21  F3         5.3030   -0.8990    1.6050 F       1  UNL1       -0.1993
     22  C11        4.0420    0.8330    0.6870 C.ar    1  UNL1        0.1982
     23  F4         4.8740    1.7630    1.2090 F       1  UNL1       -0.1993
     24  C12        2.9460    1.2390   -0.0670 C.ar    1  UNL1        0.1875
     25  F5         2.7750    2.5830   -0.2360 F       1  UNL1       -0.2003
     26 H          -3.9923    2.0021   -2.4858 H       1  UNL1        0.1442
     27 H          -2.6172    2.2530   -1.5801 H       1  UNL1        0.1442
     28 H          -3.8708   -1.7081    0.4767 H       1  UNL1        0.0637
     29 H          -2.8866   -2.1810    2.6076 H       1  UNL1        0.0618
     30 H          -0.8956   -1.0930    3.3274 H       1  UNL1        0.0617
     31 H           0.1828    0.5241    1.9043 H       1  UNL1        0.0606
@<TRIPOS>UNITY_ATOM_ATTR
11 1
charge -1
@<TRIPOS>BOND
     1     1     2    1
     2     2     3    2
     3     2     4    2
     4     2     5    1
     5     5     6   ar
     6     5    10   ar
     7     6     7   ar
     8     7     8   ar
     9     8     9   ar
    10     9    10   ar
    11    10    11    1
    12    11    12    1
    13    12    13    2
    14    12    14    2
    15    12    15    1
    16    15    16   ar
    17    15    24   ar
    18    16    17    1
    19    16    18   ar
    20    18    19    1
    21    18    20   ar
    22    20    21    1
    23    20    22   ar
    24    22    23    1
    25    22    24   ar
    26    24    25    1
    27     1    26    1
    28     1    27    1
    29     6    28    1
    30     7    29    1
    31     8    30    1
    32     9    31    1
@<TRIPOS>MOLECULE
../data/bude_mols_rdkit_confs_charged/molecule_26.pdb
 31 32 0 0 0
SMALL
GASTEIGER

@<TRIPOS>ATOM
      1  N1        -2.7160    2.5830   -0.3620 N.3     1  UNL1       -0.2035
      2  S1        -1.5590    1.4590    0.3010 S.O2    1  UNL1        0.0548
      3  O1        -0.2150    1.6940   -0.2870 O.2     1  UNL1       -0.1533
      4  O2        -1.5460    1.7480    1.7940 O.2     1  UNL1       -0.1533
      5  C1        -2.1380   -0.1670    0.1080 C.ar    1  UNL1        0.0908
      6  C2        -3.3730   -0.3310   -0.4830 C.ar    1  UNL1       -0.0366
      7  C3        -3.9650   -1.5640   -0.6140 C.ar    1  UNL1       -0.0600
      8  C4        -3.3140   -2.6770   -0.1430 C.ar    1  UNL1       -0.0628
      9  C5        -2.1040   -2.5570    0.4410 C.ar    1  UNL1       -0.0743
     10  C6        -1.4960   -1.2720    0.5710 C.ar    1  UNL1       -0.1024
     11  N2        -0.1950   -1.2460    1.1150 N.pl3   1  UNL1       -0.5351
     12  S2         1.2120   -1.4920    0.2030 S.O2    1  UNL1       -0.0533
     13  O3         1.8750   -2.7540    0.7670 O.2     1  UNL1       -0.1840
     14  O4         0.8180   -1.9060   -1.2100 O.2     1  UNL1       -0.1840
     15  C7         2.3380   -0.2140    0.0550 C.ar    1  UNL1        0.1486
     16  C8         3.1840    0.0370    1.1350 C.ar    1  UNL1        0.1875
     17  F1         3.0750   -0.6710    2.2920 F       1  UNL1       -0.2003
     18  C9         4.1550    1.0040    1.0700 C.ar    1  UNL1        0.1982
     19  F2         4.9830    1.2430    2.1400 F       1  UNL1       -0.1993
     20  C10        4.2800    1.7310   -0.0930 C.ar    1  UNL1        0.1992
     21  F3         5.2240    2.7010   -0.2120 F       1  UNL1       -0.1993
     22  C11        3.4500    1.4990   -1.1800 C.ar    1  UNL1        0.1982
     23  F4         3.6210    2.2500   -2.3050 F       1  UNL1       -0.1993
     24  C12        2.4920    0.5310   -1.0910 C.ar    1  UNL1        0.1875
     25  F5         1.6870    0.3160   -2.1890 F       1  UNL1       -0.2003
     26 H          -2.3700    3.5354   -0.2455 H       1  UNL1        0.1442
     27 H          -3.6059    2.4824    0.1262 H       1  UNL1        0.1442
     28 H          -3.8696    0.5007   -0.8390 H       1  UNL1        0.0637
     29 H          -4.8903   -1.6525   -1.0623 H       1  UNL1        0.0618
     30 H          -3.7511   -3.6072   -0.2359 H       1  UNL1        0.0617
     31 H          -1.6171   -3.3955    0.7944 H       1  UNL1        0.0606
@<TRIPOS>UNITY_ATOM_ATTR
11 1
charge -1
@<TRIPOS>BOND
     1     1     2    1
     2     2     3    2
     3     2     4    2
     4     2     5    1
     5     5     6   ar
     6     5    10   ar
     7     6     7   ar
     8     7     8   ar
     9     8     9   ar
    10     9    10   ar
    11    10    11    1
    12    11    12    1
    13    12    13    2
    14    12    14    2
    15    12    15    1
    16    15    16   ar
    17    15    24   ar
    18    16    17    1
    19    16    18   ar
    20    18    19    1
    21    18    20   ar
    22    20    21    1
    23    20    22   ar
    24    22    23    1
    25    22    24   ar
    26    24    25    1
    27     1    26    1
    28     1    27    1
    29     6    28    1
    30     7    29    1
    31     8    30    1
    32     9    31    1
@<TRIPOS>MOLECULE
../data/bude_mols_rdkit_confs_charged/molecule_26.pdb
 31 32 0 0 0
SMALL
GASTEIGER

@<TRIPOS>ATOM
      1  N1        -4.6550   -0.2330   -1.3950 N.3     1  UNL1       -0.2035
      2  S1        -3.2260   -1.0750   -0.8250 S.O2    1  UNL1        0.0548
      3  O1        -2.5690   -1.6530   -2.0100 O.2     1  UNL1       -0.1533
      4  O2        -3.7070   -2.1670    0.1340 O.2     1  UNL1       -0.1533
      5  C1        -2.2580    0.0220    0.0800 C.ar    1  UNL1        0.0908
      6  C2        -2.7420    1.3430    0.2410 C.ar    1  UNL1       -0.0366
      7  C3        -2.0800    2.2540    1.0220 C.ar    1  UNL1       -0.0600
      8  C4        -0.9230    1.8610    1.6560 C.ar    1  UNL1       -0.0628
      9  C5        -0.4440    0.5820    1.5050 C.ar    1  UNL1       -0.0743
     10  C6        -1.1130   -0.3740    0.7000 C.ar    1  UNL1       -0.1024
     11  N2        -0.5310   -1.6330    0.5090 N.pl3   1  UNL1       -0.5351
     12  S2         0.6580   -1.9350   -0.6840 S.O2    1  UNL1       -0.0533
     13  O3         0.2840   -1.5870   -2.0810 O.2     1  UNL1       -0.1840
     14  O4         1.0510   -3.3940   -0.6890 O.2     1  UNL1       -0.1840
     15  C7         2.1080   -0.9440   -0.3540 C.ar    1  UNL1        0.1486
     16  C8         2.2240    0.3190   -0.8950 C.ar    1  UNL1        0.1875
     17  F1         1.2450    0.8300   -1.6820 F       1  UNL1       -0.2003
     18  C9         3.3520    1.0990   -0.6420 C.ar    1  UNL1        0.1982
     19  F2         3.5080    2.3440   -1.1510 F       1  UNL1       -0.1993
     20  C10        4.3590    0.5990    0.1570 C.ar    1  UNL1        0.1992
     21  F3         5.4790    1.3280    0.4300 F       1  UNL1       -0.1993
     22  C11        4.2220   -0.6620    0.6850 C.ar    1  UNL1        0.1982
     23  F4         5.1740   -1.2120    1.4760 F       1  UNL1       -0.1993
     24  C12        3.0980   -1.4380    0.4320 C.ar    1  UNL1        0.1875
     25  F5         2.9560   -2.6870    0.9510 F       1  UNL1       -0.2003
     26 H          -5.2362   -0.8755   -1.9333 H       1  UNL1        0.1442
     27 H          -4.3753    0.5494   -1.9866 H       1  UNL1        0.1442
     28 H          -3.6106    1.6254   -0.2394 H       1  UNL1        0.0637
     29 H          -2.4412    3.2144    1.1325 H       1  UNL1        0.0618
     30 H          -0.4112    2.5324    2.2495 H       1  UNL1        0.0617
     31 H           0.4254    0.3103    1.9902 H       1  UNL1        0.0606
@<TRIPOS>UNITY_ATOM_ATTR
11 1
charge -1
@<TRIPOS>BOND
     1     1     2    1
     2     2     3    2
     3     2     4    2
     4     2     5    1
     5     5     6   ar
     6     5    10   ar
     7     6     7   ar
     8     7     8   ar
     9     8     9   ar
    10     9    10   ar
    11    10    11    1
    12    11    12    1
    13    12    13    2
    14    12    14    2
    15    12    15    1
    16    15    16   ar
    17    15    24   ar
    18    16    17    1
    19    16    18   ar
    20    18    19    1
    21    18    20   ar
    22    20    21    1
    23    20    22   ar
    24    22    23    1
    25    22    24   ar
    26    24    25    1
    27     1    26    1
    28     1    27    1
    29     6    28    1
    30     7    29    1
    31     8    30    1
    32     9    31    1
