@<TRIPOS>MOLECULE
../data/bude_mols_rdkit_confs_charged/molecule_65.pdb
 36 38 0 0 0
SMALL
GASTEIGER

@<TRIPOS>ATOM
      1 O           0.2240    1.2000    0.8880 O.2     1  UNL1       -0.2917
      2 C           0.6560    0.1140    0.4230 C.2     1  UNL1        0.1678
      3 C          -0.2100   -1.1070    0.3320 C.3     1  UNL1        0.0362
      4 C          -1.5620   -0.8540    0.8420 C.ar    1  UNL1       -0.0322
      5 C          -1.9980   -1.3210    2.0820 C.ar    1  UNL1       -0.0576
      6 C          -3.2710   -1.0620    2.5110 C.ar    1  UNL1       -0.0609
      7 C          -4.1750   -0.3410    1.7610 C.ar    1  UNL1       -0.0540
      8 C          -3.7630    0.1310    0.5290 C.ar    1  UNL1       -0.0176
      9 C          -4.6460    0.8630   -0.2550 C.ar    1  UNL1       -0.0540
     10 C          -4.1920    1.3100   -1.4660 C.ar    1  UNL1       -0.0612
     11 C          -2.9040    1.0600   -1.9220 C.ar    1  UNL1       -0.0612
     12 C          -2.0400    0.3390   -1.1470 C.ar    1  UNL1       -0.0538
     13 C          -2.4690   -0.1260    0.0800 C.ar    1  UNL1       -0.0143
     14 C           2.0390    0.0710   -0.0300 C.ar    1  UNL1        0.0275
     15 C           2.5410   -1.1070   -0.5390 C.ar    1  UNL1       -0.0099
     16 C           3.8530   -1.2150   -0.9910 C.ar    1  UNL1        0.1163
     17 O           4.3530   -2.4150   -1.5060 O.3     1  UNL1       -0.5071
     18 C           4.6260   -0.0810   -0.9030 C.ar    1  UNL1        0.0141
     19 O           5.9400   -0.1730   -1.3510 O.co2   1  UNL1       -0.8670
     20 C           4.1890    1.1250   -0.4070 C.ar    1  UNL1        0.2697
     21 N           5.0390    2.2640   -0.3430 N.pl3   1  UNL1        0.0791
     22 O           5.9290    2.4150   -1.2050 O.2     1  UNL1        0.0414
     23 O           4.9250    3.2110    0.6300 O.co2   1  UNL1       -0.5761
     24 C           2.8610    1.1720    0.0320 C.ar    1  UNL1        0.0257
     25 H           0.2359   -1.8917    0.9067 H       1  UNL1        0.0394
     26 H          -0.2891   -1.3831   -0.6987 H       1  UNL1        0.0394
     27 H          -1.3563   -1.8653    2.6795 H       1  UNL1        0.0621
     28 H          -3.5660   -1.4207    3.4326 H       1  UNL1        0.0618
     29 H          -5.1296   -0.1592    2.1084 H       1  UNL1        0.0624
     30 H          -5.6072    1.0619    0.0636 H       1  UNL1        0.0624
     31 H          -4.8323    1.8548   -2.0646 H       1  UNL1        0.0618
     32 H          -2.6011    1.4171   -2.8417 H       1  UNL1        0.0618
     33 H          -1.0807    0.1449   -1.4741 H       1  UNL1        0.0624
     34 H           1.9256   -1.9341   -0.5865 H       1  UNL1        0.0661
     35 H           3.8011   -3.1708   -1.5529 H       1  UNL1        0.2921
     36 H           2.4886    2.0562    0.4123 H       1  UNL1        0.0692
@<TRIPOS>UNITY_ATOM_ATTR
19 1
charge -1
21 1
charge 1
23 1
charge -1
@<TRIPOS>BOND
     1     1     2    2
     2     2     3    1
     3     2    14    1
     4     3     4    1
     5     4     5   ar
     6     4    13   ar
     7     5     6   ar
     8     6     7   ar
     9     7     8   ar
    10     8     9   ar
    11     8    13   ar
    12     9    10   ar
    13    10    11   ar
    14    11    12   ar
    15    12    13   ar
    16    14    15   ar
    17    14    24   ar
    18    15    16   ar
    19    16    17    1
    20    16    18   ar
    21    18    19    1
    22    18    20   ar
    23    20    21    1
    24    20    24   ar
    25    21    22    2
    26    21    23    1
    27     3    25    1
    28     3    26    1
    29     5    27    1
    30     6    28    1
    31     7    29    1
    32     9    30    1
    33    10    31    1
    34    11    32    1
    35    12    33    1
    36    15    34    1
    37    17    35    1
    38    24    36    1
@<TRIPOS>MOLECULE
../data/bude_mols_rdkit_confs_charged/molecule_65.pdb
 36 38 0 0 0
SMALL
GASTEIGER

@<TRIPOS>ATOM
      1 O          -0.0350   -1.6020   -0.3750 O.2     1  UNL1       -0.2917
      2 C           0.6240   -0.6040   -0.0040 C.2     1  UNL1        0.1678
      3 C          -0.0440    0.4060    0.8500 C.3     1  UNL1        0.0362
      4 C          -1.4380    0.0690    1.1490 C.ar    1  UNL1       -0.0322
      5 C          -1.8420   -0.4190    2.3660 C.ar    1  UNL1       -0.0576
      6 C          -3.1550   -0.7330    2.6490 C.ar    1  UNL1       -0.0609
      7 C          -4.1140   -0.5530    1.6760 C.ar    1  UNL1       -0.0540
      8 C          -3.7430   -0.0590    0.4290 C.ar    1  UNL1       -0.0176
      9 C          -4.7070    0.1250   -0.5550 C.ar    1  UNL1       -0.0540
     10 C          -4.2990    0.6160   -1.7750 C.ar    1  UNL1       -0.0612
     11 C          -2.9850    0.9280   -2.0540 C.ar    1  UNL1       -0.0612
     12 C          -2.0420    0.7390   -1.0650 C.ar    1  UNL1       -0.0538
     13 C          -2.4120    0.2490    0.1700 C.ar    1  UNL1       -0.0143
     14 C           2.0050   -0.4810   -0.4230 C.ar    1  UNL1        0.0275
     15 C           2.5850   -1.4410   -1.2140 C.ar    1  UNL1       -0.0099
     16 C           3.8990   -1.2950   -1.5940 C.ar    1  UNL1        0.1163
     17 O           4.4550   -2.2910   -2.3980 O.3     1  UNL1       -0.5071
     18 C           4.6140   -0.2030   -1.1860 C.ar    1  UNL1        0.0141
     19 O           5.9390   -0.0790   -1.5830 O.co2   1  UNL1       -0.8670
     20 C           4.0760    0.7920   -0.3900 C.ar    1  UNL1        0.2697
     21 N           4.8340    1.9180    0.0230 N.pl3   1  UNL1        0.0791
     22 O           6.0760    1.8330    0.2180 O.2     1  UNL1        0.0414
     23 O           4.2590    3.1440    0.2270 O.co2   1  UNL1       -0.5761
     24 C           2.7450    0.6160   -0.0210 C.ar    1  UNL1        0.0257
     25 H          -0.0217    1.3488    0.3445 H       1  UNL1        0.0394
     26 H           0.4843    0.4396    1.7799 H       1  UNL1        0.0394
     27 H          -1.1321   -0.5572    3.1022 H       1  UNL1        0.0621
     28 H          -3.4160   -1.0983    3.5782 H       1  UNL1        0.0618
     29 H          -5.1010   -0.7830    1.8708 H       1  UNL1        0.0624
     30 H          -5.6984   -0.0995   -0.3768 H       1  UNL1        0.0624
     31 H          -5.0071    0.7566   -2.5124 H       1  UNL1        0.0618
     32 H          -2.7137    1.2939   -2.9800 H       1  UNL1        0.0618
     33 H          -1.0525    0.9659   -1.2506 H       1  UNL1        0.0624
     34 H           2.0415   -2.2631   -1.5202 H       1  UNL1        0.0661
     35 H           3.9361   -3.0262   -2.6593 H       1  UNL1        0.2921
     36 H           2.2948    1.3294    0.5735 H       1  UNL1        0.0692
@<TRIPOS>UNITY_ATOM_ATTR
19 1
charge -1
21 1
charge 1
23 1
charge -1
@<TRIPOS>BOND
     1     1     2    2
     2     2     3    1
     3     2    14    1
     4     3     4    1
     5     4     5   ar
     6     4    13   ar
     7     5     6   ar
     8     6     7   ar
     9     7     8   ar
    10     8     9   ar
    11     8    13   ar
    12     9    10   ar
    13    10    11   ar
    14    11    12   ar
    15    12    13   ar
    16    14    15   ar
    17    14    24   ar
    18    15    16   ar
    19    16    17    1
    20    16    18   ar
    21    18    19    1
    22    18    20   ar
    23    20    21    1
    24    20    24   ar
    25    21    22    2
    26    21    23    1
    27     3    25    1
    28     3    26    1
    29     5    27    1
    30     6    28    1
    31     7    29    1
    32     9    30    1
    33    10    31    1
    34    11    32    1
    35    12    33    1
    36    15    34    1
    37    17    35    1
    38    24    36    1
@<TRIPOS>MOLECULE
../data/bude_mols_rdkit_confs_charged/molecule_65.pdb
 36 38 0 0 0
SMALL
GASTEIGER

@<TRIPOS>ATOM
      1 O          -0.2570    1.4060   -0.0900 O.2     1  UNL1       -0.2917
      2 C          -0.6420    0.2230   -0.3070 C.2     1  UNL1        0.1678
      3 C           0.2760   -0.7770   -0.9450 C.3     1  UNL1        0.0362
      4 C           1.5740   -0.1250   -1.2200 C.ar    1  UNL1       -0.0322
      5 C           1.9230    0.2760   -2.5100 C.ar    1  UNL1       -0.0576
      6 C           3.1270    0.8860   -2.7930 C.ar    1  UNL1       -0.0609
      7 C           4.0290    1.1150   -1.7850 C.ar    1  UNL1       -0.0540
      8 C           3.7140    0.7320   -0.5040 C.ar    1  UNL1       -0.0176
      9 C           4.6550    0.9810    0.4870 C.ar    1  UNL1       -0.0540
     10 C           4.3870    0.6150    1.7820 C.ar    1  UNL1       -0.0612
     11 C           3.1700    0.0000    2.0640 C.ar    1  UNL1       -0.0612
     12 C           2.2300   -0.2480    1.0690 C.ar    1  UNL1       -0.0538
     13 C           2.4970    0.1180   -0.2300 C.ar    1  UNL1       -0.0143
     14 C          -2.0010   -0.1510    0.0780 C.ar    1  UNL1        0.0275
     15 C          -2.4460   -1.4460   -0.1350 C.ar    1  UNL1       -0.0099
     16 C          -3.7270   -1.8440    0.2080 C.ar    1  UNL1        0.1163
     17 O          -4.1900   -3.1260    0.0050 O.3     1  UNL1       -0.5071
     18 C          -4.5810   -0.9090    0.7830 C.ar    1  UNL1        0.0141
     19 O          -5.8720   -1.2850    1.1370 O.co2   1  UNL1       -0.8670
     20 C          -4.1700    0.3890    1.0090 C.ar    1  UNL1        0.2697
     21 N          -5.0720    1.3130    1.5970 N.pl3   1  UNL1        0.0791
     22 O          -6.3080    1.2620    1.4190 O.2     1  UNL1        0.0414
     23 O          -4.6060    2.3210    2.4050 O.co2   1  UNL1       -0.5761
     24 C          -2.8750    0.7260    0.6430 C.ar    1  UNL1        0.0257
     25 H          -0.1528   -1.1252   -1.8614 H       1  UNL1        0.0394
     26 H           0.4194   -1.6095   -0.2883 H       1  UNL1        0.0394
     27 H           1.2562    0.1102   -3.2800 H       1  UNL1        0.0621
     28 H           3.3488    1.1694   -3.7602 H       1  UNL1        0.0618
     29 H           4.9333    1.5695   -1.9867 H       1  UNL1        0.0624
     30 H           5.5496    1.4382    0.2509 H       1  UNL1        0.0624
     31 H           5.0736    0.7920    2.5319 H       1  UNL1        0.0618
     32 H           2.9602   -0.2787    3.0352 H       1  UNL1        0.0618
     33 H           1.3352   -0.7051    1.3045 H       1  UNL1        0.0624
     34 H          -1.8046   -2.1330   -0.5612 H       1  UNL1        0.0661
     35 H          -3.6302   -3.7707   -0.3810 H       1  UNL1        0.2921
     36 H          -2.5573    1.6939    0.8081 H       1  UNL1        0.0692
@<TRIPOS>UNITY_ATOM_ATTR
19 1
charge -1
21 1
charge 1
23 1
charge -1
@<TRIPOS>BOND
     1     1     2    2
     2     2     3    1
     3     2    14    1
     4     3     4    1
     5     4     5   ar
     6     4    13   ar
     7     5     6   ar
     8     6     7   ar
     9     7     8   ar
    10     8     9   ar
    11     8    13   ar
    12     9    10   ar
    13    10    11   ar
    14    11    12   ar
    15    12    13   ar
    16    14    15   ar
    17    14    24   ar
    18    15    16   ar
    19    16    17    1
    20    16    18   ar
    21    18    19    1
    22    18    20   ar
    23    20    21    1
    24    20    24   ar
    25    21    22    2
    26    21    23    1
    27     3    25    1
    28     3    26    1
    29     5    27    1
    30     6    28    1
    31     7    29    1
    32     9    30    1
    33    10    31    1
    34    11    32    1
    35    12    33    1
    36    15    34    1
    37    17    35    1
    38    24    36    1
@<TRIPOS>MOLECULE
../data/bude_mols_rdkit_confs_charged/molecule_65.pdb
 36 38 0 0 0
SMALL
GASTEIGER

@<TRIPOS>ATOM
      1 O          -0.1810   -1.6410    0.2970 O.2     1  UNL1       -0.2917
      2 C           0.5590   -0.6380    0.2530 C.2     1  UNL1        0.1678
      3 C           0.0490    0.6700    0.6890 C.3     1  UNL1        0.0362
      4 C          -1.3550    0.6100    1.1500 C.ar    1  UNL1       -0.0322
      5 C          -1.6930    0.6430    2.4930 C.ar    1  UNL1       -0.0576
      6 C          -3.0030    0.5890    2.9230 C.ar    1  UNL1       -0.0609
      7 C          -4.0420    0.4970    2.0200 C.ar    1  UNL1       -0.0540
      8 C          -3.7340    0.4630    0.6890 C.ar    1  UNL1       -0.0176
      9 C          -4.7740    0.3720   -0.2170 C.ar    1  UNL1       -0.0540
     10 C          -4.4640    0.3380   -1.5590 C.ar    1  UNL1       -0.0612
     11 C          -3.1580    0.3920   -1.9850 C.ar    1  UNL1       -0.0612
     12 C          -2.1050    0.4840   -1.0760 C.ar    1  UNL1       -0.0538
     13 C          -2.4180    0.5180    0.2530 C.ar    1  UNL1       -0.0143
     14 C           1.9150   -0.7990   -0.2340 C.ar    1  UNL1        0.0275
     15 C           2.3980   -2.0260   -0.6430 C.ar    1  UNL1       -0.0099
     16 C           3.7030   -2.0840   -1.0950 C.ar    1  UNL1        0.1163
     17 O           4.2070   -3.3130   -1.5110 O.3     1  UNL1       -0.5071
     18 C           4.5080   -0.9570   -1.1410 C.ar    1  UNL1        0.0141
     19 O           5.8240   -1.0080   -1.5950 O.co2   1  UNL1       -0.8670
     20 C           4.0310    0.2580   -0.7370 C.ar    1  UNL1        0.2697
     21 N           4.8290    1.4580   -0.7670 N.pl3   1  UNL1        0.0791
     22 O           5.7060    1.6340   -1.6190 O.2     1  UNL1        0.0414
     23 O           4.5880    2.4070    0.1810 O.co2   1  UNL1       -0.5761
     24 C           2.7330    0.3180   -0.2870 C.ar    1  UNL1        0.0257
     25 H           0.1107    1.3527   -0.1326 H       1  UNL1        0.0394
     26 H           0.6474    0.9911    1.5159 H       1  UNL1        0.0394
     27 H          -0.9399    0.7102    3.1954 H       1  UNL1        0.0621
     28 H          -3.2084    0.6178    3.9339 H       1  UNL1        0.0618
     29 H          -5.0222    0.4551    2.3400 H       1  UNL1        0.0624
     30 H          -5.7544    0.3307    0.1026 H       1  UNL1        0.0624
     31 H          -5.2233    0.2710   -2.2547 H       1  UNL1        0.0618
     32 H          -2.9534    0.3639   -2.9961 H       1  UNL1        0.0618
     33 H          -1.1246    0.5249   -1.3957 H       1  UNL1        0.0624
     34 H           1.8054   -2.8704   -0.6123 H       1  UNL1        0.0661
     35 H           3.6645   -4.0763   -1.4808 H       1  UNL1        0.2921
     36 H           2.3548    1.2271    0.0221 H       1  UNL1        0.0692
@<TRIPOS>UNITY_ATOM_ATTR
19 1
charge -1
21 1
charge 1
23 1
charge -1
@<TRIPOS>BOND
     1     1     2    2
     2     2     3    1
     3     2    14    1
     4     3     4    1
     5     4     5   ar
     6     4    13   ar
     7     5     6   ar
     8     6     7   ar
     9     7     8   ar
    10     8     9   ar
    11     8    13   ar
    12     9    10   ar
    13    10    11   ar
    14    11    12   ar
    15    12    13   ar
    16    14    15   ar
    17    14    24   ar
    18    15    16   ar
    19    16    17    1
    20    16    18   ar
    21    18    19    1
    22    18    20   ar
    23    20    21    1
    24    20    24   ar
    25    21    22    2
    26    21    23    1
    27     3    25    1
    28     3    26    1
    29     5    27    1
    30     6    28    1
    31     7    29    1
    32     9    30    1
    33    10    31    1
    34    11    32    1
    35    12    33    1
    36    15    34    1
    37    17    35    1
    38    24    36    1
@<TRIPOS>MOLECULE
../data/bude_mols_rdkit_confs_charged/molecule_65.pdb
 36 38 0 0 0
SMALL
GASTEIGER

@<TRIPOS>ATOM
      1 O           0.0210    1.0730   -1.2950 O.2     1  UNL1       -0.2917
      2 C           0.5140    0.0840   -0.7270 C.2     1  UNL1        0.1678
      3 C          -0.2830   -1.0540   -0.2060 C.3     1  UNL1        0.0362
      4 C          -1.7210   -0.9030   -0.4290 C.ar    1  UNL1       -0.0322
      5 C          -2.3670   -1.6150   -1.4190 C.ar    1  UNL1       -0.0576
      6 C          -3.7190   -1.5010   -1.6600 C.ar    1  UNL1       -0.0609
      7 C          -4.4330   -0.6320   -0.8620 C.ar    1  UNL1       -0.0540
      8 C          -3.7840    0.0850    0.1330 C.ar    1  UNL1       -0.0176
      9 C          -4.4870    0.9700    0.9510 C.ar    1  UNL1       -0.0540
     10 C          -3.8640    1.6910    1.9440 C.ar    1  UNL1       -0.0612
     11 C          -2.5070    1.5420    2.1450 C.ar    1  UNL1       -0.0612
     12 C          -1.7690    0.6790    1.3620 C.ar    1  UNL1       -0.0538
     13 C          -2.4320   -0.0260    0.3770 C.ar    1  UNL1       -0.0143
     14 C           1.9620    0.0140   -0.5520 C.ar    1  UNL1        0.0275
     15 C           2.5940   -1.0440    0.0650 C.ar    1  UNL1       -0.0099
     16 C           3.9630   -1.1190    0.2350 C.ar    1  UNL1        0.1163
     17 O           4.5030   -2.2230    0.8670 O.3     1  UNL1       -0.5071
     18 C           4.7450   -0.0850   -0.2340 C.ar    1  UNL1        0.0141
     19 O           6.1190   -0.1940   -0.0450 O.co2   1  UNL1       -0.8670
     20 C           4.1520    0.9840   -0.8530 C.ar    1  UNL1        0.2697
     21 N           5.0080    2.0300   -1.3220 N.pl3   1  UNL1        0.0791
     22 O           4.6410    2.7220   -2.2860 O.2     1  UNL1        0.0414
     23 O           6.2250    2.3150   -0.7600 O.co2   1  UNL1       -0.5761
     24 C           2.7820    1.0440   -1.0150 C.ar    1  UNL1        0.0257
     25 H          -0.1093   -1.1367    0.8466 H       1  UNL1        0.0394
     26 H           0.0299   -1.9292   -0.7360 H       1  UNL1        0.0394
     27 H          -1.8138   -2.2606   -2.0040 H       1  UNL1        0.0621
     28 H          -4.1787   -2.0441   -2.4075 H       1  UNL1        0.0618
     29 H          -5.4484   -0.5151   -1.0046 H       1  UNL1        0.0624
     30 H          -5.5022    1.0872    0.8075 H       1  UNL1        0.0624
     31 H          -4.4083    2.3390    2.5346 H       1  UNL1        0.0618
     32 H          -2.0391    2.0823    2.8894 H       1  UNL1        0.0618
     33 H          -0.7538    0.5639    1.5076 H       1  UNL1        0.0624
     34 H           2.0141   -1.8210    0.4186 H       1  UNL1        0.0661
     35 H           3.9422   -2.9082    1.1737 H       1  UNL1        0.2921
     36 H           2.3594    1.8603   -1.4841 H       1  UNL1        0.0692
@<TRIPOS>UNITY_ATOM_ATTR
19 1
charge -1
21 1
charge 1
23 1
charge -1
@<TRIPOS>BOND
     1     1     2    2
     2     2     3    1
     3     2    14    1
     4     3     4    1
     5     4     5   ar
     6     4    13   ar
     7     5     6   ar
     8     6     7   ar
     9     7     8   ar
    10     8     9   ar
    11     8    13   ar
    12     9    10   ar
    13    10    11   ar
    14    11    12   ar
    15    12    13   ar
    16    14    15   ar
    17    14    24   ar
    18    15    16   ar
    19    16    17    1
    20    16    18   ar
    21    18    19    1
    22    18    20   ar
    23    20    21    1
    24    20    24   ar
    25    21    22    2
    26    21    23    1
    27     3    25    1
    28     3    26    1
    29     5    27    1
    30     6    28    1
    31     7    29    1
    32     9    30    1
    33    10    31    1
    34    11    32    1
    35    12    33    1
    36    15    34    1
    37    17    35    1
    38    24    36    1
@<TRIPOS>MOLECULE
../data/bude_mols_rdkit_confs_charged/molecule_65.pdb
 36 38 0 0 0
SMALL
GASTEIGER

@<TRIPOS>ATOM
      1 O          -0.1870   -1.8220   -0.7080 O.2     1  UNL1       -0.2917
      2 C          -0.5580   -0.6310   -0.7970 C.2     1  UNL1        0.1678
      3 C           0.3920    0.4320   -1.0870 C.3     1  UNL1        0.0362
      4 C           1.4270    0.6760   -0.0520 C.ar    1  UNL1       -0.0322
      5 C           1.1960    1.6600    0.9000 C.ar    1  UNL1       -0.0576
      6 C           2.1250    1.8560    1.8750 C.ar    1  UNL1       -0.0609
      7 C           3.2800    1.1160    1.9490 C.ar    1  UNL1       -0.0540
      8 C           3.5230    0.1300    1.0040 C.ar    1  UNL1       -0.0176
      9 C           4.6690   -0.6180    1.0360 C.ar    1  UNL1       -0.0540
     10 C           4.9470   -1.5970    0.0980 C.ar    1  UNL1       -0.0612
     11 C           4.0300   -1.8220   -0.9040 C.ar    1  UNL1       -0.0612
     12 C           2.8670   -1.0680   -0.9410 C.ar    1  UNL1       -0.0538
     13 C           2.5730   -0.0770   -0.0010 C.ar    1  UNL1       -0.0143
     14 C          -2.0000   -0.4090   -0.5850 C.ar    1  UNL1        0.0275
     15 C          -2.8750   -1.4730   -0.3860 C.ar    1  UNL1       -0.0099
     16 C          -4.2250   -1.3010   -0.1580 C.ar    1  UNL1        0.1163
     17 O          -5.0620   -2.4170    0.0350 O.3     1  UNL1       -0.5071
     18 C          -4.7600   -0.0520   -0.1190 C.ar    1  UNL1        0.0141
     19 O          -6.1290    0.0840    0.1150 O.co2   1  UNL1       -0.8670
     20 C          -3.9340    1.0400   -0.3110 C.ar    1  UNL1        0.2697
     21 N          -4.5190    2.3370   -0.2640 N.pl3   1  UNL1        0.0791
     22 O          -3.8530    3.3180    0.0700 O.2     1  UNL1        0.0414
     23 O          -5.8250    2.5280   -0.5860 O.co2   1  UNL1       -0.5761
     24 C          -2.5780    0.8420   -0.5390 C.ar    1  UNL1        0.0257
     25 H          -0.1606    1.3388   -1.2183 H       1  UNL1        0.0394
     26 H           0.9240    0.1150   -1.9596 H       1  UNL1        0.0394
     27 H           0.3371    2.2313    0.8688 H       1  UNL1        0.0621
     28 H           1.9558    2.5866    2.5840 H       1  UNL1        0.0618
     29 H           3.9625    1.2925    2.7027 H       1  UNL1        0.0624
     30 H           5.3528   -0.4451    1.7894 H       1  UNL1        0.0624
     31 H           5.8201   -2.1448    0.1484 H       1  UNL1        0.0618
     32 H           4.2064   -2.5441   -1.6199 H       1  UNL1        0.0618
     33 H           2.1878   -1.2469   -1.6971 H       1  UNL1        0.0624
     34 H          -2.4974   -2.4331   -0.4100 H       1  UNL1        0.0661
     35 H          -4.7027   -3.2820    0.0099 H       1  UNL1        0.2921
     36 H          -1.9762    1.6684   -0.6803 H       1  UNL1        0.0692
@<TRIPOS>UNITY_ATOM_ATTR
19 1
charge -1
21 1
charge 1
23 1
charge -1
@<TRIPOS>BOND
     1     1     2    2
     2     2     3    1
     3     2    14    1
     4     3     4    1
     5     4     5   ar
     6     4    13   ar
     7     5     6   ar
     8     6     7   ar
     9     7     8   ar
    10     8     9   ar
    11     8    13   ar
    12     9    10   ar
    13    10    11   ar
    14    11    12   ar
    15    12    13   ar
    16    14    15   ar
    17    14    24   ar
    18    15    16   ar
    19    16    17    1
    20    16    18   ar
    21    18    19    1
    22    18    20   ar
    23    20    21    1
    24    20    24   ar
    25    21    22    2
    26    21    23    1
    27     3    25    1
    28     3    26    1
    29     5    27    1
    30     6    28    1
    31     7    29    1
    32     9    30    1
    33    10    31    1
    34    11    32    1
    35    12    33    1
    36    15    34    1
    37    17    35    1
    38    24    36    1
@<TRIPOS>MOLECULE
../data/bude_mols_rdkit_confs_charged/molecule_65.pdb
 36 38 0 0 0
SMALL
GASTEIGER

@<TRIPOS>ATOM
      1 O           0.2110    1.3970   -0.0690 O.2     1  UNL1       -0.2917
      2 C           0.6240    0.2410   -0.3650 C.2     1  UNL1        0.1678
      3 C          -0.2900   -0.6850   -1.0480 C.3     1  UNL1        0.0362
      4 C          -1.6050   -0.0510   -1.2780 C.ar    1  UNL1       -0.0322
      5 C          -2.0190    0.4090   -2.5060 C.ar    1  UNL1       -0.0576
      6 C          -3.2500    0.9880   -2.6750 C.ar    1  UNL1       -0.0609
      7 C          -4.0930    1.1120   -1.5990 C.ar    1  UNL1       -0.0540
      8 C          -3.7250    0.6660   -0.3450 C.ar    1  UNL1       -0.0176
      9 C          -4.6100    0.8200    0.6920 C.ar    1  UNL1       -0.0540
     10 C          -4.2400    0.3760    1.9370 C.ar    1  UNL1       -0.0612
     11 C          -3.0060   -0.2060    2.1150 C.ar    1  UNL1       -0.0612
     12 C          -2.1270   -0.3510    1.0530 C.ar    1  UNL1       -0.0538
     13 C          -2.4680    0.0830   -0.2020 C.ar    1  UNL1       -0.0143
     14 C           1.9900   -0.1130   -0.0120 C.ar    1  UNL1        0.0275
     15 C           2.4460   -1.3720   -0.3300 C.ar    1  UNL1       -0.0099
     16 C           3.7390   -1.7250   -0.0030 C.ar    1  UNL1        0.1163
     17 O           4.2080   -2.9940   -0.3200 O.3     1  UNL1       -0.5071
     18 C           4.5620   -0.8210    0.6360 C.ar    1  UNL1        0.0141
     19 O           5.8570   -1.2300    0.9420 O.co2   1  UNL1       -0.8670
     20 C           4.1270    0.4400    0.9620 C.ar    1  UNL1        0.2697
     21 N           4.9900    1.3480    1.6160 N.pl3   1  UNL1        0.0791
     22 O           4.6160    2.2690    2.3630 O.2     1  UNL1        0.0414
     23 O           6.3420    1.1970    1.4090 O.co2   1  UNL1       -0.5761
     24 C           2.8340    0.7850    0.6330 C.ar    1  UNL1        0.0257
     25 H          -0.4223   -1.5574   -0.4427 H       1  UNL1        0.0394
     26 H           0.1335   -0.9488   -1.9945 H       1  UNL1        0.0394
     27 H          -1.3891    0.3163   -3.3182 H       1  UNL1        0.0621
     28 H          -3.5409    1.3283   -3.6048 H       1  UNL1        0.0618
     29 H          -5.0197    1.5469   -1.7296 H       1  UNL1        0.0624
     30 H          -5.5315    1.2590    0.5397 H       1  UNL1        0.0624
     31 H          -4.8847    0.4783    2.7363 H       1  UNL1        0.0618
     32 H          -2.7310   -0.5392    3.0522 H       1  UNL1        0.0618
     33 H          -1.2062   -0.7903    1.2087 H       1  UNL1        0.0624
     34 H           1.8270   -2.0452   -0.8082 H       1  UNL1        0.0661
     35 H           3.6467   -3.6060   -0.7541 H       1  UNL1        0.2921
     36 H           2.4854    1.7271    0.8696 H       1  UNL1        0.0692
@<TRIPOS>UNITY_ATOM_ATTR
19 1
charge -1
21 1
charge 1
23 1
charge -1
@<TRIPOS>BOND
     1     1     2    2
     2     2     3    1
     3     2    14    1
     4     3     4    1
     5     4     5   ar
     6     4    13   ar
     7     5     6   ar
     8     6     7   ar
     9     7     8   ar
    10     8     9   ar
    11     8    13   ar
    12     9    10   ar
    13    10    11   ar
    14    11    12   ar
    15    12    13   ar
    16    14    15   ar
    17    14    24   ar
    18    15    16   ar
    19    16    17    1
    20    16    18   ar
    21    18    19    1
    22    18    20   ar
    23    20    21    1
    24    20    24   ar
    25    21    22    2
    26    21    23    1
    27     3    25    1
    28     3    26    1
    29     5    27    1
    30     6    28    1
    31     7    29    1
    32     9    30    1
    33    10    31    1
    34    11    32    1
    35    12    33    1
    36    15    34    1
    37    17    35    1
    38    24    36    1
@<TRIPOS>MOLECULE
../data/bude_mols_rdkit_confs_charged/molecule_65.pdb
 36 38 0 0 0
SMALL
GASTEIGER

@<TRIPOS>ATOM
      1 O           0.0690    1.4300   -0.5410 O.2     1  UNL1       -0.2917
      2 C           0.6610    0.5350    0.1080 C.2     1  UNL1        0.1678
      3 C          -0.0740   -0.1060    1.2140 C.3     1  UNL1        0.0362
      4 C          -1.4270    0.4150    1.3970 C.ar    1  UNL1       -0.0322
      5 C          -1.7590    1.2750    2.4210 C.ar    1  UNL1       -0.0576
      6 C          -3.0390    1.7640    2.5950 C.ar    1  UNL1       -0.0609
      7 C          -4.0340    1.3880    1.7210 C.ar    1  UNL1       -0.0540
      8 C          -3.7260    0.5270    0.6850 C.ar    1  UNL1       -0.0176
      9 C          -4.7160    0.1430   -0.2000 C.ar    1  UNL1       -0.0540
     10 C          -4.4030   -0.7150   -1.2290 C.ar    1  UNL1       -0.0612
     11 C          -3.1060   -1.1890   -1.3770 C.ar    1  UNL1       -0.0612
     12 C          -2.1030   -0.8210   -0.5100 C.ar    1  UNL1       -0.0538
     13 C          -2.4230    0.0390    0.5200 C.ar    1  UNL1       -0.0143
     14 C           2.0290    0.1770   -0.2580 C.ar    1  UNL1        0.0275
     15 C           2.7470   -0.7810    0.3970 C.ar    1  UNL1       -0.0099
     16 C           4.0280   -1.0660   -0.0060 C.ar    1  UNL1        0.1163
     17 O           4.8080   -2.0370    0.6300 O.3     1  UNL1       -0.5071
     18 C           4.6050   -0.3990   -1.0640 C.ar    1  UNL1        0.0141
     19 O           5.9150   -0.6890   -1.4780 O.co2   1  UNL1       -0.8670
     20 C           3.9060    0.5880   -1.7630 C.ar    1  UNL1        0.2697
     21 N           4.5110    1.2680   -2.8520 N.pl3   1  UNL1        0.0791
     22 O           4.2320    2.4110   -3.2160 O.2     1  UNL1        0.0414
     23 O           5.4920    0.5580   -3.5400 O.co2   1  UNL1       -0.5761
     24 C           2.6290    0.8280   -1.3130 C.ar    1  UNL1        0.0257
     25 H           0.4740    0.0502    2.1197 H       1  UNL1        0.0394
     26 H          -0.1678   -1.1433    0.9688 H       1  UNL1        0.0394
     27 H          -1.0229    1.5650    3.0836 H       1  UNL1        0.0621
     28 H          -3.2481    2.4068    3.3748 H       1  UNL1        0.0618
     29 H          -4.9956    1.7439    1.8378 H       1  UNL1        0.0624
     30 H          -5.6795    0.4961   -0.0901 H       1  UNL1        0.0624
     31 H          -5.1357   -1.0078   -1.8942 H       1  UNL1        0.0618
     32 H          -2.8896   -1.8318   -2.1549 H       1  UNL1        0.0618
     33 H          -1.1415   -1.1772   -0.6266 H       1  UNL1        0.0624
     34 H           2.3287   -1.2891    1.1919 H       1  UNL1        0.0661
     35 H           4.4590   -2.5174    1.3548 H       1  UNL1        0.2921
     36 H           2.0786    1.5506   -1.8028 H       1  UNL1        0.0692
@<TRIPOS>UNITY_ATOM_ATTR
19 1
charge -1
21 1
charge 1
23 1
charge -1
@<TRIPOS>BOND
     1     1     2    2
     2     2     3    1
     3     2    14    1
     4     3     4    1
     5     4     5   ar
     6     4    13   ar
     7     5     6   ar
     8     6     7   ar
     9     7     8   ar
    10     8     9   ar
    11     8    13   ar
    12     9    10   ar
    13    10    11   ar
    14    11    12   ar
    15    12    13   ar
    16    14    15   ar
    17    14    24   ar
    18    15    16   ar
    19    16    17    1
    20    16    18   ar
    21    18    19    1
    22    18    20   ar
    23    20    21    1
    24    20    24   ar
    25    21    22    2
    26    21    23    1
    27     3    25    1
    28     3    26    1
    29     5    27    1
    30     6    28    1
    31     7    29    1
    32     9    30    1
    33    10    31    1
    34    11    32    1
    35    12    33    1
    36    15    34    1
    37    17    35    1
    38    24    36    1
@<TRIPOS>MOLECULE
../data/bude_mols_rdkit_confs_charged/molecule_65.pdb
 36 38 0 0 0
SMALL
GASTEIGER

@<TRIPOS>ATOM
      1 O           0.1290    1.0620    0.6110 O.2     1  UNL1       -0.2917
      2 C           0.5610   -0.0240    0.1540 C.2     1  UNL1        0.1678
      3 C          -0.3510   -1.1660    0.0580 C.3     1  UNL1        0.0362
      4 C          -1.6840   -0.8050    0.5450 C.ar    1  UNL1       -0.0322
      5 C          -2.0860   -1.2360    1.7910 C.ar    1  UNL1       -0.0576
      6 C          -3.3360   -0.9010    2.2610 C.ar    1  UNL1       -0.0609
      7 C          -4.1900   -0.1260    1.4690 C.ar    1  UNL1       -0.0540
      8 C          -3.7580    0.2890    0.2270 C.ar    1  UNL1       -0.0176
      9 C          -4.5690    1.0610   -0.5990 C.ar    1  UNL1       -0.0540
     10 C          -4.1470    1.4850   -1.8510 C.ar    1  UNL1       -0.0612
     11 C          -2.8860    1.1480   -2.3230 C.ar    1  UNL1       -0.0612
     12 C          -2.0800    0.3840   -1.5100 C.ar    1  UNL1       -0.0538
     13 C          -2.5050   -0.0340   -0.2680 C.ar    1  UNL1       -0.0143
     14 C           1.9720   -0.0900   -0.2620 C.ar    1  UNL1        0.0275
     15 C           2.5050   -1.2560   -0.7750 C.ar    1  UNL1       -0.0099
     16 C           3.8260   -1.3710   -1.1800 C.ar    1  UNL1        0.1163
     17 O           4.3270   -2.5560   -1.6900 O.3     1  UNL1       -0.5071
     18 C           4.6260   -0.2640   -1.0590 C.ar    1  UNL1        0.0141
     19 O           5.9570   -0.3770   -1.4660 O.co2   1  UNL1       -0.8670
     20 C           4.1330    0.9220   -0.5510 C.ar    1  UNL1        0.2697
     21 N           4.9810    2.0550   -0.4350 N.pl3   1  UNL1        0.0791
     22 O           4.5320    3.2200   -0.4740 O.2     1  UNL1        0.0414
     23 O           6.3340    1.8990   -0.2740 O.co2   1  UNL1       -0.5761
     24 C           2.7990    0.9910   -0.1570 C.ar    1  UNL1        0.0257
     25 H           0.0322   -1.9723    0.6479 H       1  UNL1        0.0394
     26 H          -0.4272   -1.4606   -0.9678 H       1  UNL1        0.0394
     27 H          -1.4518   -1.8082    2.3700 H       1  UNL1        0.0621
     28 H          -3.6417   -1.2202    3.1936 H       1  UNL1        0.0618
     29 H          -5.1297    0.1314    1.8094 H       1  UNL1        0.0624
     30 H          -5.5111    1.3257   -0.2712 H       1  UNL1        0.0624
     31 H          -4.7764    2.0561   -2.4365 H       1  UNL1        0.0618
     32 H          -2.5636    1.4598   -3.2524 H       1  UNL1        0.0618
     33 H          -1.1380    0.1188   -1.8375 H       1  UNL1        0.0624
     34 H           1.8909   -2.0810   -0.8610 H       1  UNL1        0.0661
     35 H           3.7698   -3.3054   -1.7675 H       1  UNL1        0.2921
     36 H           2.4285    1.8766    0.2217 H       1  UNL1        0.0692
@<TRIPOS>UNITY_ATOM_ATTR
19 1
charge -1
21 1
charge 1
23 1
charge -1
@<TRIPOS>BOND
     1     1     2    2
     2     2     3    1
     3     2    14    1
     4     3     4    1
     5     4     5   ar
     6     4    13   ar
     7     5     6   ar
     8     6     7   ar
     9     7     8   ar
    10     8     9   ar
    11     8    13   ar
    12     9    10   ar
    13    10    11   ar
    14    11    12   ar
    15    12    13   ar
    16    14    15   ar
    17    14    24   ar
    18    15    16   ar
    19    16    17    1
    20    16    18   ar
    21    18    19    1
    22    18    20   ar
    23    20    21    1
    24    20    24   ar
    25    21    22    2
    26    21    23    1
    27     3    25    1
    28     3    26    1
    29     5    27    1
    30     6    28    1
    31     7    29    1
    32     9    30    1
    33    10    31    1
    34    11    32    1
    35    12    33    1
    36    15    34    1
    37    17    35    1
    38    24    36    1
@<TRIPOS>MOLECULE
../data/bude_mols_rdkit_confs_charged/molecule_65.pdb
 36 38 0 0 0
SMALL
GASTEIGER

@<TRIPOS>ATOM
      1 O           0.9870   -2.1800    0.5310 O.2     1  UNL1       -0.2917
      2 C           0.9340   -0.9800    0.2120 C.2     1  UNL1        0.1678
      3 C          -0.2580   -0.1980   -0.0500 C.3     1  UNL1        0.0362
      4 C          -1.5540   -0.8420    0.0290 C.ar    1  UNL1       -0.0322
      5 C          -1.8320   -2.1820    0.0830 C.ar    1  UNL1       -0.0576
      6 C          -3.1250   -2.7070    0.1580 C.ar    1  UNL1       -0.0609
      7 C          -4.1880   -1.8590    0.1810 C.ar    1  UNL1       -0.0540
      8 C          -3.9460   -0.5080    0.1270 C.ar    1  UNL1       -0.0176
      9 C          -5.0180    0.3430    0.1470 C.ar    1  UNL1       -0.0540
     10 C          -4.8870    1.7150    0.0960 C.ar    1  UNL1       -0.0612
     11 C          -3.6270    2.2280    0.0220 C.ar    1  UNL1       -0.0612
     12 C          -2.5270    1.3830    0.0000 C.ar    1  UNL1       -0.0538
     13 C          -2.6710    0.0070    0.0530 C.ar    1  UNL1       -0.0143
     14 C           2.2370   -0.2890    0.0930 C.ar    1  UNL1        0.0275
     15 C           2.3320    1.0450   -0.2730 C.ar    1  UNL1       -0.0099
     16 C           3.5450    1.6900   -0.3800 C.ar    1  UNL1        0.1163
     17 O           3.6420    3.0200   -0.7450 O.3     1  UNL1       -0.5071
     18 C           4.7060    1.0050   -0.1180 C.ar    1  UNL1        0.0141
     19 O           5.9140    1.6700   -0.2300 O.co2   1  UNL1       -0.8670
     20 C           4.6600   -0.3100    0.2460 C.ar    1  UNL1        0.2697
     21 N           5.8340   -1.0730    0.5330 N.pl3   1  UNL1        0.0791
     22 O           5.8760   -2.3060    0.3810 O.2     1  UNL1        0.0414
     23 O           6.9690   -0.4520    0.9960 O.co2   1  UNL1       -0.5761
     24 C           3.4310   -0.9280    0.3440 C.ar    1  UNL1        0.0257
     25 H          -0.1634    0.1950   -1.0407 H       1  UNL1        0.0394
     26 H          -0.2772    0.5145    0.7481 H       1  UNL1        0.0394
     27 H          -1.0398   -2.8432    0.0674 H       1  UNL1        0.0621
     28 H          -3.2717   -3.7278    0.1956 H       1  UNL1        0.0618
     29 H          -5.1525   -2.2216    0.2376 H       1  UNL1        0.0624
     30 H          -5.9664   -0.0600    0.2027 H       1  UNL1        0.0624
     31 H          -5.7144    2.3315    0.1133 H       1  UNL1        0.0618
     32 H          -3.4902    3.2501   -0.0179 H       1  UNL1        0.0618
     33 H          -1.5800    1.7892   -0.0572 H       1  UNL1        0.0624
     34 H           1.4669    1.5715   -0.4716 H       1  UNL1        0.0661
     35 H           2.8668    3.5128   -0.9298 H       1  UNL1        0.2921
     36 H           3.4046   -1.9220    0.6201 H       1  UNL1        0.0692
@<TRIPOS>UNITY_ATOM_ATTR
19 1
charge -1
21 1
charge 1
23 1
charge -1
@<TRIPOS>BOND
     1     1     2    2
     2     2     3    1
     3     2    14    1
     4     3     4    1
     5     4     5   ar
     6     4    13   ar
     7     5     6   ar
     8     6     7   ar
     9     7     8   ar
    10     8     9   ar
    11     8    13   ar
    12     9    10   ar
    13    10    11   ar
    14    11    12   ar
    15    12    13   ar
    16    14    15   ar
    17    14    24   ar
    18    15    16   ar
    19    16    17    1
    20    16    18   ar
    21    18    19    1
    22    18    20   ar
    23    20    21    1
    24    20    24   ar
    25    21    22    2
    26    21    23    1
    27     3    25    1
    28     3    26    1
    29     5    27    1
    30     6    28    1
    31     7    29    1
    32     9    30    1
    33    10    31    1
    34    11    32    1
    35    12    33    1
    36    15    34    1
    37    17    35    1
    38    24    36    1
@<TRIPOS>MOLECULE
../data/bude_mols_rdkit_confs_charged/molecule_65.pdb
 36 38 0 0 0
SMALL
GASTEIGER

@<TRIPOS>ATOM
      1 O          -0.0730   -1.5190    0.6040 O.2     1  UNL1       -0.2917
      2 C           0.6120   -0.6520    0.0270 C.2     1  UNL1        0.1678
      3 C          -0.0000    0.2080   -1.0010 C.3     1  UNL1        0.0362
      4 C          -1.4350   -0.1130   -1.2080 C.ar    1  UNL1       -0.0322
      5 C          -1.8630   -0.8350   -2.3180 C.ar    1  UNL1       -0.0576
      6 C          -3.1870   -1.1480   -2.5390 C.ar    1  UNL1       -0.0609
      7 C          -4.1470   -0.7380   -1.6320 C.ar    1  UNL1       -0.0540
      8 C          -3.7720   -0.0170   -0.5110 C.ar    1  UNL1       -0.0176
      9 C          -4.7360    0.3880    0.3890 C.ar    1  UNL1       -0.0540
     10 C          -4.3610    1.1040    1.5000 C.ar    1  UNL1       -0.0612
     11 C          -3.0230    1.3960    1.6820 C.ar    1  UNL1       -0.0612
     12 C          -2.0730    0.9850    0.7770 C.ar    1  UNL1       -0.0538
     13 C          -2.4250    0.2760   -0.3290 C.ar    1  UNL1       -0.0143
     14 C           2.0110   -0.5110    0.3880 C.ar    1  UNL1        0.0275
     15 C           2.6020   -1.3090    1.3510 C.ar    1  UNL1       -0.0099
     16 C           3.9310   -1.1130    1.6340 C.ar    1  UNL1        0.1163
     17 O           4.5600   -1.9110    2.6100 O.3     1  UNL1       -0.5071
     18 C           4.6750   -0.1660    1.0020 C.ar    1  UNL1        0.0141
     19 O           6.0100    0.0160    1.3010 O.co2   1  UNL1       -0.8670
     20 C           4.0880    0.6220    0.0510 C.ar    1  UNL1        0.2697
     21 N           4.8810    1.6040   -0.5970 N.pl3   1  UNL1        0.0791
     22 O           6.0940    1.4630   -0.8090 O.2     1  UNL1        0.0414
     23 O           4.2980    2.7930   -1.0270 O.co2   1  UNL1       -0.5761
     24 C           2.7570    0.4570   -0.2640 C.ar    1  UNL1        0.0257
     25 H           0.5224    0.0689   -1.9244 H       1  UNL1        0.0394
     26 H           0.0685    1.2227   -0.6685 H       1  UNL1        0.0394
     27 H          -1.1595   -1.1493   -3.0045 H       1  UNL1        0.0621
     28 H          -3.4604   -1.6853   -3.3766 H       1  UNL1        0.0618
     29 H          -5.1403   -0.9688   -1.7902 H       1  UNL1        0.0624
     30 H          -5.7287    0.1555    0.2293 H       1  UNL1        0.0624
     31 H          -5.0656    1.4178    2.1857 H       1  UNL1        0.0618
     32 H          -2.7309    1.9331    2.5134 H       1  UNL1        0.0618
     33 H          -1.0806    1.2174    0.9389 H       1  UNL1        0.0624
     34 H           2.0575   -2.0336    1.8444 H       1  UNL1        0.0661
     35 H           4.0716   -2.5712    3.0613 H       1  UNL1        0.2921
     36 H           2.3174    1.0525   -0.9831 H       1  UNL1        0.0692
@<TRIPOS>UNITY_ATOM_ATTR
19 1
charge -1
21 1
charge 1
23 1
charge -1
@<TRIPOS>BOND
     1     1     2    2
     2     2     3    1
     3     2    14    1
     4     3     4    1
     5     4     5   ar
     6     4    13   ar
     7     5     6   ar
     8     6     7   ar
     9     7     8   ar
    10     8     9   ar
    11     8    13   ar
    12     9    10   ar
    13    10    11   ar
    14    11    12   ar
    15    12    13   ar
    16    14    15   ar
    17    14    24   ar
    18    15    16   ar
    19    16    17    1
    20    16    18   ar
    21    18    19    1
    22    18    20   ar
    23    20    21    1
    24    20    24   ar
    25    21    22    2
    26    21    23    1
    27     3    25    1
    28     3    26    1
    29     5    27    1
    30     6    28    1
    31     7    29    1
    32     9    30    1
    33    10    31    1
    34    11    32    1
    35    12    33    1
    36    15    34    1
    37    17    35    1
    38    24    36    1
@<TRIPOS>MOLECULE
../data/bude_mols_rdkit_confs_charged/molecule_65.pdb
 36 38 0 0 0
SMALL
GASTEIGER

@<TRIPOS>ATOM
      1 O           0.0070   -0.4430    1.5400 O.2     1  UNL1       -0.2917
      2 C           0.6570    0.0390    0.5840 C.2     1  UNL1        0.1678
      3 C          -0.0680    0.9510   -0.3380 C.3     1  UNL1        0.0362
      4 C          -1.4630    1.1330    0.0630 C.ar    1  UNL1       -0.0322
      5 C          -1.8410    2.3030    0.6890 C.ar    1  UNL1       -0.0576
      6 C          -3.1340    2.5500    1.1010 C.ar    1  UNL1       -0.0609
      7 C          -4.0980    1.5850    0.8790 C.ar    1  UNL1       -0.0540
      8 C          -3.7690    0.3990    0.2570 C.ar    1  UNL1       -0.0176
      9 C          -4.7150   -0.5740    0.0280 C.ar    1  UNL1       -0.0540
     10 C          -4.4080   -1.7700   -0.5940 C.ar    1  UNL1       -0.0612
     11 C          -3.0960   -1.9540   -0.9810 C.ar    1  UNL1       -0.0612
     12 C          -2.1320   -0.9840   -0.7570 C.ar    1  UNL1       -0.0538
     13 C          -2.4620    0.1980   -0.1370 C.ar    1  UNL1       -0.0143
     14 C           2.0590   -0.2360    0.3260 C.ar    1  UNL1        0.0275
     15 C           2.7120   -1.0910    1.1990 C.ar    1  UNL1       -0.0099
     16 C           4.0510   -1.4030    1.0250 C.ar    1  UNL1        0.1163
     17 O           4.7450   -2.2540    1.8740 O.3     1  UNL1       -0.5071
     18 C           4.6930   -0.8240   -0.0490 C.ar    1  UNL1        0.0141
     19 O           6.0450   -1.0980   -0.2800 O.co2   1  UNL1       -0.8670
     20 C           4.0380    0.0390   -0.9310 C.ar    1  UNL1        0.2697
     21 N           4.7100    0.6270   -2.0290 N.pl3   1  UNL1        0.0791
     22 O           4.3120    1.7160   -2.4610 O.2     1  UNL1        0.0414
     23 O           5.7780   -0.0290   -2.5750 O.co2   1  UNL1       -0.5761
     24 C           2.7020    0.3390   -0.7430 C.ar    1  UNL1        0.0257
     25 H          -0.0424    0.5379   -1.3247 H       1  UNL1        0.0394
     26 H           0.4138    1.9059   -0.3080 H       1  UNL1        0.0394
     27 H          -1.1239    3.0260    0.8566 H       1  UNL1        0.0621
     28 H          -3.3769    3.4386    1.5662 H       1  UNL1        0.0618
     29 H          -5.0705    1.7530    1.1807 H       1  UNL1        0.0624
     30 H          -5.6870   -0.4051    0.3310 H       1  UNL1        0.0624
     31 H          -5.1265   -2.4917   -0.7612 H       1  UNL1        0.0618
     32 H          -2.8267   -2.8341   -1.4479 H       1  UNL1        0.0618
     33 H          -1.1589   -1.1501   -1.0579 H       1  UNL1        0.0624
     34 H           2.1933   -1.5018    1.9910 H       1  UNL1        0.0661
     35 H           4.3077   -2.6469    2.6036 H       1  UNL1        0.2921
     36 H           2.2035    0.9747   -1.3852 H       1  UNL1        0.0692
@<TRIPOS>UNITY_ATOM_ATTR
19 1
charge -1
21 1
charge 1
23 1
charge -1
@<TRIPOS>BOND
     1     1     2    2
     2     2     3    1
     3     2    14    1
     4     3     4    1
     5     4     5   ar
     6     4    13   ar
     7     5     6   ar
     8     6     7   ar
     9     7     8   ar
    10     8     9   ar
    11     8    13   ar
    12     9    10   ar
    13    10    11   ar
    14    11    12   ar
    15    12    13   ar
    16    14    15   ar
    17    14    24   ar
    18    15    16   ar
    19    16    17    1
    20    16    18   ar
    21    18    19    1
    22    18    20   ar
    23    20    21    1
    24    20    24   ar
    25    21    22    2
    26    21    23    1
    27     3    25    1
    28     3    26    1
    29     5    27    1
    30     6    28    1
    31     7    29    1
    32     9    30    1
    33    10    31    1
    34    11    32    1
    35    12    33    1
    36    15    34    1
    37    17    35    1
    38    24    36    1
@<TRIPOS>MOLECULE
../data/bude_mols_rdkit_confs_charged/molecule_65.pdb
 36 38 0 0 0
SMALL
GASTEIGER

@<TRIPOS>ATOM
      1 O          -0.1870    1.7070   -1.4070 O.2     1  UNL1       -0.2917
      2 C          -0.6310    0.5540   -1.2870 C.2     1  UNL1        0.1678
      3 C           0.2460   -0.5720   -1.7200 C.3     1  UNL1        0.0362
      4 C           1.3100   -0.8080   -0.7160 C.ar    1  UNL1       -0.0322
      5 C           1.0160   -1.7270    0.2860 C.ar    1  UNL1       -0.0576
      6 C           1.8500   -1.9950    1.3290 C.ar    1  UNL1       -0.0609
      7 C           3.0440   -1.3530    1.4330 C.ar    1  UNL1       -0.0540
      8 C           3.3620   -0.4280    0.4440 C.ar    1  UNL1       -0.0176
      9 C           4.5730    0.2230    0.5230 C.ar    1  UNL1       -0.0540
     10 C           4.9090    1.1240   -0.4520 C.ar    1  UNL1       -0.0612
     11 C           4.0520    1.3840   -1.5030 C.ar    1  UNL1       -0.0612
     12 C           2.8400    0.7410   -1.5930 C.ar    1  UNL1       -0.0538
     13 C           2.5000   -0.1610   -0.6200 C.ar    1  UNL1       -0.0143
     14 C          -1.9720    0.3440   -0.7280 C.ar    1  UNL1        0.0275
     15 C          -2.5310   -0.8930   -0.6040 C.ar    1  UNL1       -0.0099
     16 C          -3.7830   -1.0240   -0.0210 C.ar    1  UNL1        0.1163
     17 O          -4.3580   -2.2850    0.1120 O.3     1  UNL1       -0.5071
     18 C          -4.4670    0.0850    0.4340 C.ar    1  UNL1        0.0141
     19 O          -5.7290   -0.0250    1.0260 O.co2   1  UNL1       -0.8670
     20 C          -3.9300    1.3610    0.3240 C.ar    1  UNL1        0.2697
     21 N          -4.6190    2.4980    0.7910 N.pl3   1  UNL1        0.0791
     22 O          -3.9990    3.5100    1.1490 O.2     1  UNL1        0.0414
     23 O          -5.9880    2.5250    0.8570 O.co2   1  UNL1       -0.5761
     24 C          -2.6800    1.4320   -0.2650 C.ar    1  UNL1        0.0257
     25 H           0.6951   -0.3287   -2.6602 H       1  UNL1        0.0394
     26 H          -0.3459   -1.4582   -1.8160 H       1  UNL1        0.0394
     27 H           0.1178   -2.2329    0.2365 H       1  UNL1        0.0621
     28 H           1.5747   -2.6877    2.0427 H       1  UNL1        0.0618
     29 H           3.6893   -1.5445    2.2153 H       1  UNL1        0.0624
     30 H           5.2183    0.0345    1.3060 H       1  UNL1        0.0624
     31 H           5.8151    1.6154   -0.4006 H       1  UNL1        0.0618
     32 H           4.3236    2.0670   -2.2274 H       1  UNL1        0.0618
     33 H           2.1990    0.9342   -2.3784 H       1  UNL1        0.0624
     34 H          -2.0259   -1.7271   -0.9418 H       1  UNL1        0.0661
     35 H          -3.9005   -3.0432   -0.1942 H       1  UNL1        0.2921
     36 H          -2.2480    2.3640   -0.3645 H       1  UNL1        0.0692
@<TRIPOS>UNITY_ATOM_ATTR
19 1
charge -1
21 1
charge 1
23 1
charge -1
@<TRIPOS>BOND
     1     1     2    2
     2     2     3    1
     3     2    14    1
     4     3     4    1
     5     4     5   ar
     6     4    13   ar
     7     5     6   ar
     8     6     7   ar
     9     7     8   ar
    10     8     9   ar
    11     8    13   ar
    12     9    10   ar
    13    10    11   ar
    14    11    12   ar
    15    12    13   ar
    16    14    15   ar
    17    14    24   ar
    18    15    16   ar
    19    16    17    1
    20    16    18   ar
    21    18    19    1
    22    18    20   ar
    23    20    21    1
    24    20    24   ar
    25    21    22    2
    26    21    23    1
    27     3    25    1
    28     3    26    1
    29     5    27    1
    30     6    28    1
    31     7    29    1
    32     9    30    1
    33    10    31    1
    34    11    32    1
    35    12    33    1
    36    15    34    1
    37    17    35    1
    38    24    36    1
@<TRIPOS>MOLECULE
../data/bude_mols_rdkit_confs_charged/molecule_65.pdb
 36 38 0 0 0
SMALL
GASTEIGER

@<TRIPOS>ATOM
      1 O          -0.2080    1.4410   -0.5520 O.2     1  UNL1       -0.2917
      2 C           0.5090    0.6460    0.0870 C.2     1  UNL1        0.1678
      3 C          -0.1230   -0.1710    1.1500 C.3     1  UNL1        0.0362
      4 C          -1.5400    0.1190    1.1770 C.ar    1  UNL1       -0.0322
      5 C          -2.0670    0.9280    2.1620 C.ar    1  UNL1       -0.0576
      6 C          -3.4280    1.2320    2.2160 C.ar    1  UNL1       -0.0609
      7 C          -4.2890    0.7300    1.2810 C.ar    1  UNL1       -0.0540
      8 C          -3.7940   -0.0860    0.2770 C.ar    1  UNL1       -0.0176
      9 C          -4.6430   -0.6020   -0.6760 C.ar    1  UNL1       -0.0540
     10 C          -4.1510   -1.4160   -1.6790 C.ar    1  UNL1       -0.0612
     11 C          -2.8100   -1.7140   -1.7300 C.ar    1  UNL1       -0.0612
     12 C          -1.9790   -1.1740   -0.7480 C.ar    1  UNL1       -0.0538
     13 C          -2.4560   -0.3670    0.2500 C.ar    1  UNL1       -0.0143
     14 C           1.9080    0.5390   -0.2140 C.ar    1  UNL1        0.0275
     15 C           2.4760    1.3380   -1.2110 C.ar    1  UNL1       -0.0099
     16 C           3.8220    1.2440   -1.5330 C.ar    1  UNL1        0.1163
     17 O           4.3200    2.0630   -2.5290 O.3     1  UNL1       -0.5071
     18 C           4.6430    0.3520   -0.8710 C.ar    1  UNL1        0.0141
     19 O           5.9720    0.3020   -1.2340 O.co2   1  UNL1       -0.8670
     20 C           4.1040   -0.4510    0.1200 C.ar    1  UNL1        0.2697
     21 N           4.9280   -1.3700    0.8010 N.pl3   1  UNL1        0.0791
     22 O           5.8810   -1.8930    0.2160 O.2     1  UNL1        0.0414
     23 O           4.6750   -1.6840    2.1010 O.co2   1  UNL1       -0.5761
     24 C           2.7680   -0.3430    0.4250 C.ar    1  UNL1        0.0257
     25 H           0.3122    0.0712    2.0970 H       1  UNL1        0.0394
     26 H           0.0326   -1.2109    0.9517 H       1  UNL1        0.0394
     27 H          -1.4370    1.3196    2.8794 H       1  UNL1        0.0621
     28 H          -3.7871    1.8407    2.9680 H       1  UNL1        0.0618
     29 H          -5.2951    0.9559    1.3224 H       1  UNL1        0.0624
     30 H          -5.6503   -0.3803   -0.6414 H       1  UNL1        0.0624
     31 H          -4.7916   -1.8007   -2.3908 H       1  UNL1        0.0618
     32 H          -2.4288   -2.3198   -2.4734 H       1  UNL1        0.0618
     33 H          -0.9703   -1.3902   -0.7747 H       1  UNL1        0.0624
     34 H           1.8813    2.0119   -1.7181 H       1  UNL1        0.0661
     35 H           3.7515    2.6635   -2.9697 H       1  UNL1        0.2921
     36 H           2.3848   -0.9490    1.1673 H       1  UNL1        0.0692
@<TRIPOS>UNITY_ATOM_ATTR
19 1
charge -1
21 1
charge 1
23 1
charge -1
@<TRIPOS>BOND
     1     1     2    2
     2     2     3    1
     3     2    14    1
     4     3     4    1
     5     4     5   ar
     6     4    13   ar
     7     5     6   ar
     8     6     7   ar
     9     7     8   ar
    10     8     9   ar
    11     8    13   ar
    12     9    10   ar
    13    10    11   ar
    14    11    12   ar
    15    12    13   ar
    16    14    15   ar
    17    14    24   ar
    18    15    16   ar
    19    16    17    1
    20    16    18   ar
    21    18    19    1
    22    18    20   ar
    23    20    21    1
    24    20    24   ar
    25    21    22    2
    26    21    23    1
    27     3    25    1
    28     3    26    1
    29     5    27    1
    30     6    28    1
    31     7    29    1
    32     9    30    1
    33    10    31    1
    34    11    32    1
    35    12    33    1
    36    15    34    1
    37    17    35    1
    38    24    36    1
@<TRIPOS>MOLECULE
../data/bude_mols_rdkit_confs_charged/molecule_65.pdb
 36 38 0 0 0
SMALL
GASTEIGER

@<TRIPOS>ATOM
      1 O           0.2620    1.2680   -0.8990 O.2     1  UNL1       -0.2917
      2 C           0.7380    0.2380   -0.3890 C.2     1  UNL1        0.1678
      3 C          -0.2020   -0.8950   -0.0730 C.3     1  UNL1        0.0362
      4 C          -1.5450   -0.4880   -0.5770 C.ar    1  UNL1       -0.0322
      5 C          -1.6380   -0.1150   -1.9420 C.ar    1  UNL1       -0.0576
      6 C          -2.7460    0.4020   -2.4960 C.ar    1  UNL1       -0.0609
      7 C          -3.8590    0.5900   -1.7290 C.ar    1  UNL1       -0.0540
      8 C          -3.8230    0.2420   -0.3960 C.ar    1  UNL1       -0.0176
      9 C          -4.9880    0.3980    0.3100 C.ar    1  UNL1       -0.0540
     10 C          -5.0000    0.0070    1.6160 C.ar    1  UNL1       -0.0612
     11 C          -3.8670   -0.5330    2.2080 C.ar    1  UNL1       -0.0612
     12 C          -2.6970   -0.6830    1.4890 C.ar    1  UNL1       -0.0538
     13 C          -2.6610   -0.2950    0.1670 C.ar    1  UNL1       -0.0143
     14 C           2.1690    0.1680   -0.1380 C.ar    1  UNL1        0.0275
     15 C           2.7200   -0.8720    0.5920 C.ar    1  UNL1       -0.0099
     16 C           4.0820   -0.9980    0.7540 C.ar    1  UNL1        0.1163
     17 O           4.6070   -2.0550    1.4940 O.3     1  UNL1       -0.5071
     18 C           4.9450   -0.0590    0.1710 C.ar    1  UNL1        0.0141
     19 O           6.2980   -0.2090    0.3480 O.co2   1  UNL1       -0.8670
     20 C           4.4350    0.9900   -0.5640 C.ar    1  UNL1        0.2697
     21 N           5.2920    1.9510   -1.1970 N.pl3   1  UNL1        0.0791
     22 O           4.9080    3.1080   -1.4350 O.2     1  UNL1        0.0414
     23 O           6.5800    1.6260   -1.5700 O.co2   1  UNL1       -0.5761
     24 C           3.0530    1.0630   -0.6880 C.ar    1  UNL1        0.0257
     25 H          -0.2388   -1.0604    0.9835 H       1  UNL1        0.0394
     26 H           0.1228   -1.8052   -0.5323 H       1  UNL1        0.0394
     27 H          -0.8089   -0.2482   -2.5419 H       1  UNL1        0.0621
     28 H          -2.7561    0.6559   -3.4962 H       1  UNL1        0.0618
     29 H          -4.7170    0.9878   -2.1421 H       1  UNL1        0.0624
     30 H          -5.8293    0.7988   -0.1333 H       1  UNL1        0.0624
     31 H          -5.8630    0.1140    2.1717 H       1  UNL1        0.0618
     32 H          -3.8988   -0.8260    3.1970 H       1  UNL1        0.0618
     33 H          -1.8576   -1.0819    1.9377 H       1  UNL1        0.0624
     34 H           2.0949   -1.5696    1.0251 H       1  UNL1        0.0661
     35 H           4.0329   -2.6840    1.8848 H       1  UNL1        0.2921
     36 H           2.6625    1.8473   -1.2334 H       1  UNL1        0.0692
@<TRIPOS>UNITY_ATOM_ATTR
19 1
charge -1
21 1
charge 1
23 1
charge -1
@<TRIPOS>BOND
     1     1     2    2
     2     2     3    1
     3     2    14    1
     4     3     4    1
     5     4     5   ar
     6     4    13   ar
     7     5     6   ar
     8     6     7   ar
     9     7     8   ar
    10     8     9   ar
    11     8    13   ar
    12     9    10   ar
    13    10    11   ar
    14    11    12   ar
    15    12    13   ar
    16    14    15   ar
    17    14    24   ar
    18    15    16   ar
    19    16    17    1
    20    16    18   ar
    21    18    19    1
    22    18    20   ar
    23    20    21    1
    24    20    24   ar
    25    21    22    2
    26    21    23    1
    27     3    25    1
    28     3    26    1
    29     5    27    1
    30     6    28    1
    31     7    29    1
    32     9    30    1
    33    10    31    1
    34    11    32    1
    35    12    33    1
    36    15    34    1
    37    17    35    1
    38    24    36    1
@<TRIPOS>MOLECULE
../data/bude_mols_rdkit_confs_charged/molecule_65.pdb
 36 38 0 0 0
SMALL
GASTEIGER

@<TRIPOS>ATOM
      1 O           0.0000   -1.0760    1.0200 O.2     1  UNL1       -0.2917
      2 C           0.6130   -0.4740    0.0850 C.2     1  UNL1        0.1678
      3 C          -0.1140   -0.1570   -1.1670 C.3     1  UNL1        0.0362
      4 C          -1.4980   -0.6520   -1.0420 C.ar    1  UNL1       -0.0322
      5 C          -1.8590   -1.8040   -1.6990 C.ar    1  UNL1       -0.0576
      6 C          -3.1590   -2.2980   -1.6010 C.ar    1  UNL1       -0.0609
      7 C          -4.0970   -1.6300   -0.8400 C.ar    1  UNL1       -0.0540
      8 C          -3.7470   -0.4780   -0.1790 C.ar    1  UNL1       -0.0176
      9 C          -4.7070    0.1600    0.5690 C.ar    1  UNL1       -0.0540
     10 C          -4.3430    1.3150    1.2280 C.ar    1  UNL1       -0.0612
     11 C          -3.0580    1.8010    1.1290 C.ar    1  UNL1       -0.0612
     12 C          -2.1190    1.1480    0.3780 C.ar    1  UNL1       -0.0538
     13 C          -2.4420   -0.0050   -0.2930 C.ar    1  UNL1       -0.0143
     14 C           2.0070   -0.1270    0.3030 C.ar    1  UNL1        0.0275
     15 C           2.6060   -0.4610    1.4960 C.ar    1  UNL1       -0.0099
     16 C           3.9390   -0.1500    1.7520 C.ar    1  UNL1        0.1163
     17 O           4.5480   -0.4830    2.9490 O.3     1  UNL1       -0.5071
     18 C           4.6920    0.5060    0.8040 C.ar    1  UNL1        0.0141
     19 O           6.0240    0.8420    1.0000 O.co2   1  UNL1       -0.8670
     20 C           4.1130    0.8600   -0.4210 C.ar    1  UNL1        0.2697
     21 N           4.8770    1.5310   -1.3980 N.pl3   1  UNL1        0.0791
     22 O           4.6080    1.4190   -2.5970 O.2     1  UNL1        0.0414
     23 O           5.9240    2.3130   -1.0150 O.co2   1  UNL1       -0.5761
     24 C           2.7720    0.5230   -0.6240 C.ar    1  UNL1        0.0257
     25 H           0.3670   -0.6349   -1.9947 H       1  UNL1        0.0394
     26 H          -0.1160    0.9001   -1.3325 H       1  UNL1        0.0394
     27 H          -1.1619   -2.3075   -2.2696 H       1  UNL1        0.0621
     28 H          -3.4202   -3.1639   -2.0979 H       1  UNL1        0.0618
     29 H          -5.0594   -1.9954   -0.7678 H       1  UNL1        0.0624
     30 H          -5.6672   -0.2125    0.6352 H       1  UNL1        0.0624
     31 H          -5.0386    1.8192    1.7998 H       1  UNL1        0.0618
     32 H          -2.8005    2.6675    1.6269 H       1  UNL1        0.0618
     33 H          -1.1605    1.5253    0.3156 H       1  UNL1        0.0624
     34 H           2.0552   -0.9528    2.2169 H       1  UNL1        0.0661
     35 H           4.0617   -0.9298    3.6137 H       1  UNL1        0.2921
     36 H           2.3356    0.7791   -1.5234 H       1  UNL1        0.0692
@<TRIPOS>UNITY_ATOM_ATTR
19 1
charge -1
21 1
charge 1
23 1
charge -1
@<TRIPOS>BOND
     1     1     2    2
     2     2     3    1
     3     2    14    1
     4     3     4    1
     5     4     5   ar
     6     4    13   ar
     7     5     6   ar
     8     6     7   ar
     9     7     8   ar
    10     8     9   ar
    11     8    13   ar
    12     9    10   ar
    13    10    11   ar
    14    11    12   ar
    15    12    13   ar
    16    14    15   ar
    17    14    24   ar
    18    15    16   ar
    19    16    17    1
    20    16    18   ar
    21    18    19    1
    22    18    20   ar
    23    20    21    1
    24    20    24   ar
    25    21    22    2
    26    21    23    1
    27     3    25    1
    28     3    26    1
    29     5    27    1
    30     6    28    1
    31     7    29    1
    32     9    30    1
    33    10    31    1
    34    11    32    1
    35    12    33    1
    36    15    34    1
    37    17    35    1
    38    24    36    1
@<TRIPOS>MOLECULE
../data/bude_mols_rdkit_confs_charged/molecule_65.pdb
 36 38 0 0 0
SMALL
GASTEIGER

@<TRIPOS>ATOM
      1 O           0.0820    0.0720   -1.2660 O.2     1  UNL1       -0.2917
      2 C           0.5880   -0.3360   -0.1840 C.2     1  UNL1        0.1678
      3 C          -0.2530   -1.1040    0.7480 C.3     1  UNL1        0.0362
      4 C          -1.6320   -1.2680    0.2080 C.ar    1  UNL1       -0.0322
      5 C          -2.0210   -2.5030   -0.2950 C.ar    1  UNL1       -0.0576
      6 C          -3.3110   -2.6060   -0.7730 C.ar    1  UNL1       -0.0609
      7 C          -4.1770   -1.5420   -0.7560 C.ar    1  UNL1       -0.0540
      8 C          -3.7580   -0.3180   -0.2460 C.ar    1  UNL1       -0.0176
      9 C          -4.6240    0.7610   -0.2280 C.ar    1  UNL1       -0.0540
     10 C          -4.2030    1.9610    0.2730 C.ar    1  UNL1       -0.0612
     11 C          -2.9300    2.0960    0.7530 C.ar    1  UNL1       -0.0612
     12 C          -2.0450    1.0510    0.7520 C.ar    1  UNL1       -0.0538
     13 C          -2.4630   -0.1610    0.2490 C.ar    1  UNL1       -0.0143
     14 C           1.9790   -0.0170    0.0710 C.ar    1  UNL1        0.0275
     15 C           2.5970   -0.4410    1.2520 C.ar    1  UNL1       -0.0099
     16 C           3.9160   -0.1540    1.5230 C.ar    1  UNL1        0.1163
     17 O           4.4620   -0.6140    2.7290 O.3     1  UNL1       -0.5071
     18 C           4.6720    0.5680    0.6230 C.ar    1  UNL1        0.0141
     19 O           5.9970    0.8610    0.8870 O.co2   1  UNL1       -0.8670
     20 C           4.0710    0.9910   -0.5450 C.ar    1  UNL1        0.2697
     21 N           4.8390    1.7450   -1.4970 N.pl3   1  UNL1        0.0791
     22 O           6.0450    1.5500   -1.6190 O.2     1  UNL1        0.0414
     23 O           4.1820    2.6900   -2.2650 O.co2   1  UNL1       -0.5761
     24 C           2.7370    0.7040   -0.8250 C.ar    1  UNL1        0.0257
     25 H          -0.3022   -0.5865    1.6832 H       1  UNL1        0.0394
     26 H           0.1801   -2.0735    0.8797 H       1  UNL1        0.0394
     27 H          -1.3743   -3.3071   -0.3104 H       1  UNL1        0.0621
     28 H          -3.6338   -3.5091   -1.1542 H       1  UNL1        0.0618
     29 H          -5.1364   -1.6497   -1.1206 H       1  UNL1        0.0624
     30 H          -5.5845    0.6601   -0.5916 H       1  UNL1        0.0624
     31 H          -4.8475    2.7669    0.2890 H       1  UNL1        0.0618
     32 H          -2.6280    3.0096    1.1260 H       1  UNL1        0.0618
     33 H          -1.0878    1.1688    1.1193 H       1  UNL1        0.0624
     34 H           2.0497   -0.9834    1.9385 H       1  UNL1        0.0661
     35 H           3.9317   -1.1029    3.3271 H       1  UNL1        0.2921
     36 H           2.3149    1.0329   -1.7074 H       1  UNL1        0.0692
@<TRIPOS>UNITY_ATOM_ATTR
19 1
charge -1
21 1
charge 1
23 1
charge -1
@<TRIPOS>BOND
     1     1     2    2
     2     2     3    1
     3     2    14    1
     4     3     4    1
     5     4     5   ar
     6     4    13   ar
     7     5     6   ar
     8     6     7   ar
     9     7     8   ar
    10     8     9   ar
    11     8    13   ar
    12     9    10   ar
    13    10    11   ar
    14    11    12   ar
    15    12    13   ar
    16    14    15   ar
    17    14    24   ar
    18    15    16   ar
    19    16    17    1
    20    16    18   ar
    21    18    19    1
    22    18    20   ar
    23    20    21    1
    24    20    24   ar
    25    21    22    2
    26    21    23    1
    27     3    25    1
    28     3    26    1
    29     5    27    1
    30     6    28    1
    31     7    29    1
    32     9    30    1
    33    10    31    1
    34    11    32    1
    35    12    33    1
    36    15    34    1
    37    17    35    1
    38    24    36    1
@<TRIPOS>MOLECULE
../data/bude_mols_rdkit_confs_charged/molecule_65.pdb
 36 38 0 0 0
SMALL
GASTEIGER

@<TRIPOS>ATOM
      1 O           0.0280   -0.9110    1.5930 O.2     1  UNL1       -0.2917
      2 C           0.5750   -0.6020    0.5020 C.2     1  UNL1        0.1678
      3 C          -0.2240   -0.4450   -0.7550 C.3     1  UNL1        0.0362
      4 C          -1.6500   -0.6810   -0.5500 C.ar    1  UNL1       -0.0322
      5 C          -2.2160   -1.8650   -0.9700 C.ar    1  UNL1       -0.0576
      6 C          -3.5670   -2.0890   -0.7760 C.ar    1  UNL1       -0.0609
      7 C          -4.3490   -1.1270   -0.1620 C.ar    1  UNL1       -0.0540
      8 C          -3.7440    0.0460    0.2450 C.ar    1  UNL1       -0.0176
      9 C          -4.4920    1.0310    0.8620 C.ar    1  UNL1       -0.0540
     10 C          -3.9200    2.2090    1.2780 C.ar    1  UNL1       -0.0612
     11 C          -2.5920    2.4630    1.1030 C.ar    1  UNL1       -0.0612
     12 C          -1.8240    1.4970    0.4900 C.ar    1  UNL1       -0.0538
     13 C          -2.3990    0.2950    0.0640 C.ar    1  UNL1       -0.0143
     14 C           1.9970   -0.3880    0.4200 C.ar    1  UNL1        0.0275
     15 C           2.7650   -0.5270    1.5530 C.ar    1  UNL1       -0.0099
     16 C           4.1300   -0.3320    1.5360 C.ar    1  UNL1        0.1163
     17 O           4.9170   -0.4660    2.6570 O.3     1  UNL1       -0.5071
     18 C           4.7200    0.0100    0.3420 C.ar    1  UNL1        0.0141
     19 O           6.0840    0.2250    0.2330 O.co2   1  UNL1       -0.8670
     20 C           3.9620    0.1540   -0.8040 C.ar    1  UNL1        0.2697
     21 N           4.5520    0.5080   -2.0410 N.pl3   1  UNL1        0.0791
     22 O           3.8920    1.1120   -2.8980 O.2     1  UNL1        0.0414
     23 O           5.8450    0.1800   -2.2750 O.co2   1  UNL1       -0.5761
     24 C           2.5920   -0.0460   -0.7670 C.ar    1  UNL1        0.0257
     25 H           0.1378   -1.1439   -1.4800 H       1  UNL1        0.0394
     26 H          -0.1084    0.5656   -1.0870 H       1  UNL1        0.0394
     27 H          -1.6333   -2.5829   -1.4282 H       1  UNL1        0.0621
     28 H          -3.9924   -2.9753   -1.0898 H       1  UNL1        0.0618
     29 H          -5.3582   -1.2818   -0.0120 H       1  UNL1        0.0624
     30 H          -5.5014    0.8785    1.0134 H       1  UNL1        0.0624
     31 H          -4.5114    2.9205    1.7351 H       1  UNL1        0.0618
     32 H          -2.1745    3.3519    1.4201 H       1  UNL1        0.0618
     33 H          -0.8158    1.6617    0.3439 H       1  UNL1        0.0624
     34 H           2.3064   -0.7845    2.4409 H       1  UNL1        0.0661
     35 H           4.5283   -0.6986    3.4772 H       1  UNL1        0.2921
     36 H           2.0256    0.0612   -1.6230 H       1  UNL1        0.0692
@<TRIPOS>UNITY_ATOM_ATTR
19 1
charge -1
21 1
charge 1
23 1
charge -1
@<TRIPOS>BOND
     1     1     2    2
     2     2     3    1
     3     2    14    1
     4     3     4    1
     5     4     5   ar
     6     4    13   ar
     7     5     6   ar
     8     6     7   ar
     9     7     8   ar
    10     8     9   ar
    11     8    13   ar
    12     9    10   ar
    13    10    11   ar
    14    11    12   ar
    15    12    13   ar
    16    14    15   ar
    17    14    24   ar
    18    15    16   ar
    19    16    17    1
    20    16    18   ar
    21    18    19    1
    22    18    20   ar
    23    20    21    1
    24    20    24   ar
    25    21    22    2
    26    21    23    1
    27     3    25    1
    28     3    26    1
    29     5    27    1
    30     6    28    1
    31     7    29    1
    32     9    30    1
    33    10    31    1
    34    11    32    1
    35    12    33    1
    36    15    34    1
    37    17    35    1
    38    24    36    1
@<TRIPOS>MOLECULE
../data/bude_mols_rdkit_confs_charged/molecule_65.pdb
 36 38 0 0 0
SMALL
GASTEIGER

@<TRIPOS>ATOM
      1 O           0.2520   -2.4080   -1.0090 O.2     1  UNL1       -0.2917
      2 C           0.6580   -1.2310   -0.9940 C.2     1  UNL1        0.1678
      3 C          -0.3380   -0.1560   -1.3240 C.3     1  UNL1        0.0362
      4 C          -1.2510   -0.0430   -0.1640 C.ar    1  UNL1       -0.0322
      5 C          -0.7810   -0.3190    1.1000 C.ar    1  UNL1       -0.0576
      6 C          -1.5820   -0.2410    2.2080 C.ar    1  UNL1       -0.0609
      7 C          -2.9030    0.1240    2.0720 C.ar    1  UNL1       -0.0540
      8 C          -3.4130    0.4080    0.8150 C.ar    1  UNL1       -0.0176
      9 C          -4.7290    0.7830    0.6760 C.ar    1  UNL1       -0.0540
     10 C          -5.2740    1.0850   -0.5440 C.ar    1  UNL1       -0.0612
     11 C          -4.4440    0.9990   -1.6550 C.ar    1  UNL1       -0.0612
     12 C          -3.1090    0.6180   -1.5020 C.ar    1  UNL1       -0.0538
     13 C          -2.5690    0.3190   -0.2960 C.ar    1  UNL1       -0.0143
     14 C           2.0510   -0.8650   -0.6690 C.ar    1  UNL1        0.0275
     15 C           2.9730   -1.8340   -0.4320 C.ar    1  UNL1       -0.0099
     16 C           4.3000   -1.5790   -0.0940 C.ar    1  UNL1        0.1163
     17 O           5.2210   -2.5890    0.1450 O.3     1  UNL1       -0.5071
     18 C           4.6790   -0.2480    0.0030 C.ar    1  UNL1        0.0141
     19 O           6.0130    0.0480    0.3420 O.co2   1  UNL1       -0.8670
     20 C           3.7740    0.7510   -0.2310 C.ar    1  UNL1        0.2697
     21 N           4.1820    2.1110   -0.1280 N.pl3   1  UNL1        0.0791
     22 O           5.0590    2.5080    0.6520 O.2     1  UNL1        0.0414
     23 O           3.6020    3.0910   -0.9270 O.co2   1  UNL1       -0.5761
     24 C           2.4460    0.4430   -0.5700 C.ar    1  UNL1        0.0257
     25 H          -0.8894   -0.4224   -2.2014 H       1  UNL1        0.0394
     26 H           0.1535    0.7749   -1.5160 H       1  UNL1        0.0394
     27 H           0.2070   -0.5936    1.2164 H       1  UNL1        0.0621
     28 H          -1.1972   -0.4549    3.1414 H       1  UNL1        0.0618
     29 H          -3.5112    0.1858    2.9035 H       1  UNL1        0.0624
     30 H          -5.3244    0.8386    1.5171 H       1  UNL1        0.0624
     31 H          -6.2630    1.3656   -0.6344 H       1  UNL1        0.0618
     32 H          -4.8140    1.2167   -2.5935 H       1  UNL1        0.0618
     33 H          -2.5103    0.5620   -2.3407 H       1  UNL1        0.0624
     34 H           2.6722   -2.8183   -0.5069 H       1  UNL1        0.0661
     35 H           4.9600   -3.4864    0.0782 H       1  UNL1        0.2921
     36 H           1.7684    1.2016   -0.7444 H       1  UNL1        0.0692
@<TRIPOS>UNITY_ATOM_ATTR
19 1
charge -1
21 1
charge 1
23 1
charge -1
@<TRIPOS>BOND
     1     1     2    2
     2     2     3    1
     3     2    14    1
     4     3     4    1
     5     4     5   ar
     6     4    13   ar
     7     5     6   ar
     8     6     7   ar
     9     7     8   ar
    10     8     9   ar
    11     8    13   ar
    12     9    10   ar
    13    10    11   ar
    14    11    12   ar
    15    12    13   ar
    16    14    15   ar
    17    14    24   ar
    18    15    16   ar
    19    16    17    1
    20    16    18   ar
    21    18    19    1
    22    18    20   ar
    23    20    21    1
    24    20    24   ar
    25    21    22    2
    26    21    23    1
    27     3    25    1
    28     3    26    1
    29     5    27    1
    30     6    28    1
    31     7    29    1
    32     9    30    1
    33    10    31    1
    34    11    32    1
    35    12    33    1
    36    15    34    1
    37    17    35    1
    38    24    36    1
