@<TRIPOS>MOLECULE
../data/bude_mols_rdkit_confs_charged/molecule_44.pdb
 30 31 0 0 0
SMALL
GASTEIGER

@<TRIPOS>ATOM
      1 O           0.8780   -0.1810    1.5020 O.2     1  UNL1       -0.2917
      2 C           0.1890    0.0400    0.4790 C.2     1  UNL1        0.1678
      3 C           0.8770    0.2760   -0.8050 C.3     1  UNL1        0.0356
      4 C           2.3450    0.1940   -0.5890 C.ar    1  UNL1       -0.0399
      5 C           3.1120    1.2840   -0.2630 C.ar    1  UNL1       -0.0582
      6 C           4.4630    1.1470   -0.0750 C.ar    1  UNL1       -0.0615
      7 C           5.0310   -0.1030   -0.2220 C.ar    1  UNL1       -0.0617
      8 C           4.2820   -1.1980   -0.5470 C.ar    1  UNL1       -0.0615
      9 C           2.9330   -1.0390   -0.7300 C.ar    1  UNL1       -0.0582
     10 C          -1.2820    0.0670    0.5320 C.ar    1  UNL1        0.0275
     11 C          -1.9220   -0.1530    1.7350 C.ar    1  UNL1       -0.0099
     12 C          -3.2960   -0.1420    1.8600 C.ar    1  UNL1        0.1163
     13 O          -3.9040   -0.3680    3.0870 O.3     1  UNL1       -0.5071
     14 C          -4.0410    0.1040    0.7080 C.ar    1  UNL1        0.0141
     15 O          -5.4080    0.1230    0.7900 O.co2   1  UNL1       -0.8670
     16 C          -3.4180    0.3260   -0.5020 C.ar    1  UNL1        0.2697
     17 N          -4.2010    0.5740   -1.6590 N.pl3   1  UNL1        0.0791
     18 O          -5.2830    1.1500   -1.5750 O.2     1  UNL1        0.0414
     19 O          -3.6940    0.1440   -2.8630 O.co2   1  UNL1       -0.5761
     20 C          -2.0430    0.3070   -0.5880 C.ar    1  UNL1        0.0257
     21 H           0.6225    1.2471   -1.1753 H       1  UNL1        0.0394
     22 H           0.5746   -0.4619   -1.5184 H       1  UNL1        0.0394
     23 H           2.6700    2.2107   -0.1589 H       1  UNL1        0.0620
     24 H           5.0447    1.9629    0.1718 H       1  UNL1        0.0618
     25 H           6.0477   -0.2127   -0.0827 H       1  UNL1        0.0618
     26 H           4.7224   -2.1253   -0.6525 H       1  UNL1        0.0618
     27 H           2.3522   -1.8556   -0.9767 H       1  UNL1        0.0620
     28 H          -1.3498   -0.3330    2.5747 H       1  UNL1        0.0661
     29 H          -3.3801   -0.5310    3.8465 H       1  UNL1        0.2921
     30 H          -1.5824    0.4735   -1.4964 H       1  UNL1        0.0692
@<TRIPOS>UNITY_ATOM_ATTR
15 1
charge -1
17 1
charge 1
19 1
charge -1
@<TRIPOS>BOND
     1     1     2    2
     2     2     3    1
     3     2    10    1
     4     3     4    1
     5     4     5   ar
     6     4     9   ar
     7     5     6   ar
     8     6     7   ar
     9     7     8   ar
    10     8     9   ar
    11    10    11   ar
    12    10    20   ar
    13    11    12   ar
    14    12    13    1
    15    12    14   ar
    16    14    15    1
    17    14    16   ar
    18    16    17    1
    19    16    20   ar
    20    17    18    2
    21    17    19    1
    22     3    21    1
    23     3    22    1
    24     5    23    1
    25     6    24    1
    26     7    25    1
    27     8    26    1
    28     9    27    1
    29    11    28    1
    30    13    29    1
    31    20    30    1
@<TRIPOS>MOLECULE
../data/bude_mols_rdkit_confs_charged/molecule_44.pdb
 30 31 0 0 0
SMALL
GASTEIGER

@<TRIPOS>ATOM
      1 O          -0.7420   -1.0550    1.3760 O.2     1  UNL1       -0.2917
      2 C          -0.1500   -0.3820    0.5140 C.2     1  UNL1        0.1678
      3 C          -0.9080    0.3730   -0.4800 C.3     1  UNL1        0.0356
      4 C          -2.3610    0.2560   -0.3570 C.ar    1  UNL1       -0.0399
      5 C          -3.0420   -0.7400   -1.0230 C.ar    1  UNL1       -0.0582
      6 C          -4.4100   -0.8950   -0.9410 C.ar    1  UNL1       -0.0615
      7 C          -5.1600   -0.0240   -0.1620 C.ar    1  UNL1       -0.0617
      8 C          -4.4900    0.9740    0.5070 C.ar    1  UNL1       -0.0615
      9 C          -3.1030    1.1250    0.4190 C.ar    1  UNL1       -0.0582
     10 C           1.3020   -0.3380    0.4870 C.ar    1  UNL1        0.0275
     11 C           2.0550   -1.0380    1.4090 C.ar    1  UNL1       -0.0099
     12 C           3.4340   -0.9850    1.3690 C.ar    1  UNL1        0.1163
     13 O           4.1950   -1.6970    2.3090 O.3     1  UNL1       -0.5071
     14 C           4.0990   -0.2390    0.4150 C.ar    1  UNL1        0.0141
     15 O           5.4800   -0.1630    0.3440 O.co2   1  UNL1       -0.8670
     16 C           3.3600    0.4700   -0.5210 C.ar    1  UNL1        0.2697
     17 N           3.9990    1.2580   -1.5280 N.pl3   1  UNL1        0.0791
     18 O           3.4930    2.2580   -2.0640 O.2     1  UNL1        0.0414
     19 O           5.2550    0.8790   -1.9260 O.co2   1  UNL1       -0.5761
     20 C           1.9980    0.3960   -0.4510 C.ar    1  UNL1        0.0257
     21 H          -0.6262    0.0227   -1.4510 H       1  UNL1        0.0394
     22 H          -0.6727    1.4046   -0.3207 H       1  UNL1        0.0394
     23 H          -2.5049   -1.3985   -1.6086 H       1  UNL1        0.0620
     24 H          -4.8756   -1.6573   -1.4579 H       1  UNL1        0.0618
     25 H          -6.1846   -0.1219   -0.0875 H       1  UNL1        0.0618
     26 H          -5.0282    1.6319    1.0922 H       1  UNL1        0.0618
     27 H          -2.6333    1.8860    0.9340 H       1  UNL1        0.0620
     28 H           1.5842   -1.6040    2.1321 H       1  UNL1        0.0661
     29 H           3.7673   -2.2102    2.9660 H       1  UNL1        0.2921
     30 H           1.4518    0.9259   -1.1481 H       1  UNL1        0.0692
@<TRIPOS>UNITY_ATOM_ATTR
15 1
charge -1
17 1
charge 1
19 1
charge -1
@<TRIPOS>BOND
     1     1     2    2
     2     2     3    1
     3     2    10    1
     4     3     4    1
     5     4     5   ar
     6     4     9   ar
     7     5     6   ar
     8     6     7   ar
     9     7     8   ar
    10     8     9   ar
    11    10    11   ar
    12    10    20   ar
    13    11    12   ar
    14    12    13    1
    15    12    14   ar
    16    14    15    1
    17    14    16   ar
    18    16    17    1
    19    16    20   ar
    20    17    18    2
    21    17    19    1
    22     3    21    1
    23     3    22    1
    24     5    23    1
    25     6    24    1
    26     7    25    1
    27     8    26    1
    28     9    27    1
    29    11    28    1
    30    13    29    1
    31    20    30    1
@<TRIPOS>MOLECULE
../data/bude_mols_rdkit_confs_charged/molecule_44.pdb
 30 31 0 0 0
SMALL
GASTEIGER

@<TRIPOS>ATOM
      1 O          -1.0370    1.0490   -0.9040 O.2     1  UNL1       -0.2917
      2 C          -0.2590    0.3550   -0.2280 C.2     1  UNL1        0.1678
      3 C          -0.7460   -0.7030    0.6780 C.3     1  UNL1        0.0356
      4 C          -2.2200   -0.7460    0.6060 C.ar    1  UNL1       -0.0399
      5 C          -2.8390   -1.5590   -0.3150 C.ar    1  UNL1       -0.0582
      6 C          -4.2070   -1.5840   -0.3660 C.ar    1  UNL1       -0.0615
      7 C          -4.9900   -0.8340    0.4630 C.ar    1  UNL1       -0.0617
      8 C          -4.3710   -0.0070    1.4010 C.ar    1  UNL1       -0.0615
      9 C          -2.9960    0.0170    1.4510 C.ar    1  UNL1       -0.0582
     10 C           1.1750    0.6070   -0.3450 C.ar    1  UNL1        0.0275
     11 C           1.6680    1.5920   -1.1850 C.ar    1  UNL1       -0.0099
     12 C           3.0320    1.7890   -1.2590 C.ar    1  UNL1        0.1163
     13 O           3.5020    2.7970   -2.1200 O.3     1  UNL1       -0.5071
     14 C           3.9010    1.0210   -0.5110 C.ar    1  UNL1        0.0141
     15 O           5.2800    1.2750   -0.6350 O.co2   1  UNL1       -0.8670
     16 C           3.4390    0.0350    0.3310 C.ar    1  UNL1        0.2697
     17 N           4.3370   -0.7550    1.0990 N.pl3   1  UNL1        0.0791
     18 O           5.4770   -1.0290    0.6800 O.2     1  UNL1        0.0414
     19 O           3.9690   -1.2380    2.3300 O.co2   1  UNL1       -0.5761
     20 C           2.0720   -0.1450    0.3900 C.ar    1  UNL1        0.0257
     21 H          -0.4406   -0.4873    1.6805 H       1  UNL1        0.0394
     22 H          -0.3389   -1.6486    0.3865 H       1  UNL1        0.0394
     23 H          -2.2804   -2.1416   -0.9581 H       1  UNL1        0.0620
     24 H          -4.6650   -2.1952   -1.0600 H       1  UNL1        0.0618
     25 H          -6.0190   -0.8777    0.3974 H       1  UNL1        0.0618
     26 H          -4.9321    0.5740    2.0433 H       1  UNL1        0.0618
     27 H          -2.5315    0.6255    2.1431 H       1  UNL1        0.0620
     28 H           1.0245    2.1703   -1.7475 H       1  UNL1        0.0661
     29 H           2.8951    3.3073   -2.6192 H       1  UNL1        0.2921
     30 H           1.7008   -0.8781    1.0144 H       1  UNL1        0.0692
@<TRIPOS>UNITY_ATOM_ATTR
15 1
charge -1
17 1
charge 1
19 1
charge -1
@<TRIPOS>BOND
     1     1     2    2
     2     2     3    1
     3     2    10    1
     4     3     4    1
     5     4     5   ar
     6     4     9   ar
     7     5     6   ar
     8     6     7   ar
     9     7     8   ar
    10     8     9   ar
    11    10    11   ar
    12    10    20   ar
    13    11    12   ar
    14    12    13    1
    15    12    14   ar
    16    14    15    1
    17    14    16   ar
    18    16    17    1
    19    16    20   ar
    20    17    18    2
    21    17    19    1
    22     3    21    1
    23     3    22    1
    24     5    23    1
    25     6    24    1
    26     7    25    1
    27     8    26    1
    28     9    27    1
    29    11    28    1
    30    13    29    1
    31    20    30    1
@<TRIPOS>MOLECULE
../data/bude_mols_rdkit_confs_charged/molecule_44.pdb
 30 31 0 0 0
SMALL
GASTEIGER

@<TRIPOS>ATOM
      1 O          -0.6310    0.0570   -1.3650 O.2     1  UNL1       -0.2917
      2 C          -0.0670   -0.0530   -0.2520 C.2     1  UNL1        0.1678
      3 C          -0.9140   -0.3200    0.9310 C.3     1  UNL1        0.0356
      4 C          -2.3410   -0.4090    0.5350 C.ar    1  UNL1       -0.0399
      5 C          -3.1630    0.7030    0.5140 C.ar    1  UNL1       -0.0582
      6 C          -4.4870    0.6160    0.1450 C.ar    1  UNL1       -0.0615
      7 C          -5.0580   -0.5850   -0.2200 C.ar    1  UNL1       -0.0617
      8 C          -4.2490   -1.7040   -0.2030 C.ar    1  UNL1       -0.0615
      9 C          -2.9240   -1.6160    0.1650 C.ar    1  UNL1       -0.0582
     10 C           1.3790    0.0770   -0.1230 C.ar    1  UNL1        0.0275
     11 C           2.0440   -0.0330    1.0620 C.ar    1  UNL1       -0.0099
     12 C           3.4170    0.1000    1.1210 C.ar    1  UNL1        0.1163
     13 O           4.0640   -0.0210    2.3630 O.3     1  UNL1       -0.5071
     14 C           4.1400    0.3500   -0.0250 C.ar    1  UNL1        0.0141
     15 O           5.5290    0.4790    0.0740 O.co2   1  UNL1       -0.8670
     16 C           3.5040    0.4690   -1.2480 C.ar    1  UNL1        0.2697
     17 N           4.2700    0.7260   -2.4080 N.pl3   1  UNL1        0.0791
     18 O           5.4250    0.2910   -2.5020 O.2     1  UNL1        0.0414
     19 O           3.7420    1.4560   -3.4340 O.co2   1  UNL1       -0.5761
     20 C           2.1340    0.3290   -1.2640 C.ar    1  UNL1        0.0257
     21 H          -0.7930    0.4741    1.6379 H       1  UNL1        0.0394
     22 H          -0.6163   -1.2499    1.3687 H       1  UNL1        0.0394
     23 H          -2.7745    1.6209    0.7815 H       1  UNL1        0.0620
     24 H          -5.0659    1.4703    0.1416 H       1  UNL1        0.0618
     25 H          -6.0509   -0.6452   -0.4950 H       1  UNL1        0.0618
     26 H          -4.6426   -2.6199   -0.4699 H       1  UNL1        0.0618
     27 H          -2.3470   -2.4716    0.1660 H       1  UNL1        0.0620
     28 H           1.5134   -0.2184    1.9275 H       1  UNL1        0.0661
     29 H           3.5641   -0.1911    3.1371 H       1  UNL1        0.2921
     30 H           1.6429    0.4153   -2.1676 H       1  UNL1        0.0692
@<TRIPOS>UNITY_ATOM_ATTR
15 1
charge -1
17 1
charge 1
19 1
charge -1
@<TRIPOS>BOND
     1     1     2    2
     2     2     3    1
     3     2    10    1
     4     3     4    1
     5     4     5   ar
     6     4     9   ar
     7     5     6   ar
     8     6     7   ar
     9     7     8   ar
    10     8     9   ar
    11    10    11   ar
    12    10    20   ar
    13    11    12   ar
    14    12    13    1
    15    12    14   ar
    16    14    15    1
    17    14    16   ar
    18    16    17    1
    19    16    20   ar
    20    17    18    2
    21    17    19    1
    22     3    21    1
    23     3    22    1
    24     5    23    1
    25     6    24    1
    26     7    25    1
    27     8    26    1
    28     9    27    1
    29    11    28    1
    30    13    29    1
    31    20    30    1
@<TRIPOS>MOLECULE
../data/bude_mols_rdkit_confs_charged/molecule_44.pdb
 30 31 0 0 0
SMALL
GASTEIGER

@<TRIPOS>ATOM
      1 O          -0.5420   -2.3870    0.2050 O.2     1  UNL1       -0.2917
      2 C          -0.1310   -1.2550    0.5620 C.2     1  UNL1        0.1678
      3 C          -1.0460   -0.4500    1.3710 C.3     1  UNL1        0.0356
      4 C          -2.2460   -0.0920    0.5660 C.ar    1  UNL1       -0.0399
      5 C          -2.1290    1.0020   -0.3000 C.ar    1  UNL1       -0.0582
      6 C          -3.1720    1.4170   -1.0850 C.ar    1  UNL1       -0.0615
      7 C          -4.3850    0.7550   -1.0420 C.ar    1  UNL1       -0.0617
      8 C          -4.5040   -0.3230   -0.1900 C.ar    1  UNL1       -0.0615
      9 C          -3.4500   -0.7400    0.6030 C.ar    1  UNL1       -0.0582
     10 C           1.2150   -0.8040    0.1550 C.ar    1  UNL1        0.0275
     11 C           1.9700   -1.6570   -0.6290 C.ar    1  UNL1       -0.0099
     12 C           3.2280   -1.2590   -1.0420 C.ar    1  UNL1        0.1163
     13 O           4.0040   -2.1040   -1.8340 O.3     1  UNL1       -0.5071
     14 C           3.6970   -0.0100   -0.6550 C.ar    1  UNL1        0.0141
     15 O           4.9660    0.4270   -1.0540 O.co2   1  UNL1       -0.8670
     16 C           2.9610    0.8560    0.1270 C.ar    1  UNL1        0.2697
     17 N           3.4490    2.1430    0.5140 N.pl3   1  UNL1        0.0791
     18 O           2.6100    3.0680    0.7410 O.2     1  UNL1        0.0414
     19 O           4.7630    2.4430    0.6510 O.co2   1  UNL1       -0.5761
     20 C           1.6960    0.4220    0.5250 C.ar    1  UNL1        0.0257
     21 H          -0.5495    0.4440    1.6859 H       1  UNL1        0.0394
     22 H          -1.3500   -1.0136    2.2282 H       1  UNL1        0.0394
     23 H          -1.2319    1.5099   -0.3482 H       1  UNL1        0.0620
     24 H          -3.0517    2.2280   -1.7118 H       1  UNL1        0.0618
     25 H          -5.1773    1.0583   -1.6296 H       1  UNL1        0.0618
     26 H          -5.4011   -0.8309   -0.1429 H       1  UNL1        0.0618
     27 H          -3.5736   -1.5501    1.2303 H       1  UNL1        0.0620
     28 H           1.5987   -2.5802   -0.9027 H       1  UNL1        0.0661
     29 H           3.6735   -2.9436   -2.0867 H       1  UNL1        0.2921
     30 H           1.1112    1.0386    1.1105 H       1  UNL1        0.0692
@<TRIPOS>UNITY_ATOM_ATTR
15 1
charge -1
17 1
charge 1
19 1
charge -1
@<TRIPOS>BOND
     1     1     2    2
     2     2     3    1
     3     2    10    1
     4     3     4    1
     5     4     5   ar
     6     4     9   ar
     7     5     6   ar
     8     6     7   ar
     9     7     8   ar
    10     8     9   ar
    11    10    11   ar
    12    10    20   ar
    13    11    12   ar
    14    12    13    1
    15    12    14   ar
    16    14    15    1
    17    14    16   ar
    18    16    17    1
    19    16    20   ar
    20    17    18    2
    21    17    19    1
    22     3    21    1
    23     3    22    1
    24     5    23    1
    25     6    24    1
    26     7    25    1
    27     8    26    1
    28     9    27    1
    29    11    28    1
    30    13    29    1
    31    20    30    1
@<TRIPOS>MOLECULE
../data/bude_mols_rdkit_confs_charged/molecule_44.pdb
 30 31 0 0 0
SMALL
GASTEIGER

@<TRIPOS>ATOM
      1 O          -0.6630    1.4080   -1.0700 O.2     1  UNL1       -0.2917
      2 C          -0.1120    0.4720   -0.4860 C.2     1  UNL1        0.1678
      3 C          -0.8840   -0.5610    0.2540 C.3     1  UNL1        0.0356
      4 C          -2.3250   -0.2550    0.1490 C.ar    1  UNL1       -0.0399
      5 C          -3.0830   -0.7720   -0.8960 C.ar    1  UNL1       -0.0582
      6 C          -4.4260   -0.5200   -1.0430 C.ar    1  UNL1       -0.0615
      7 C          -5.0700    0.2890   -0.1080 C.ar    1  UNL1       -0.0617
      8 C          -4.3470    0.8160    0.9360 C.ar    1  UNL1       -0.0615
      9 C          -2.9930    0.5440    1.0580 C.ar    1  UNL1       -0.0582
     10 C           1.3600    0.3390   -0.5020 C.ar    1  UNL1        0.0275
     11 C           2.1620    1.2480   -1.1620 C.ar    1  UNL1       -0.0099
     12 C           3.5390    1.1490   -1.1930 C.ar    1  UNL1        0.1163
     13 O           4.3330    2.0710   -1.8610 O.3     1  UNL1       -0.5071
     14 C           4.1390    0.0970   -0.5360 C.ar    1  UNL1        0.0141
     15 O           5.5270    0.0120   -0.5770 O.co2   1  UNL1       -0.8670
     16 C           3.3800   -0.8340    0.1360 C.ar    1  UNL1        0.2697
     17 N           4.0050   -1.9190    0.8130 N.pl3   1  UNL1        0.0791
     18 O           3.4250   -2.4250    1.7930 O.2     1  UNL1        0.0414
     19 O           5.2050   -2.4060    0.4150 O.co2   1  UNL1       -0.5761
     20 C           1.9970   -0.6980    0.1430 C.ar    1  UNL1        0.0257
     21 H          -0.5912   -0.5583    1.2832 H       1  UNL1        0.0394
     22 H          -0.6889   -1.5259   -0.1653 H       1  UNL1        0.0394
     23 H          -2.6156   -1.3725   -1.5931 H       1  UNL1        0.0620
     24 H          -4.9505   -0.9241   -1.8346 H       1  UNL1        0.0618
     25 H          -6.0782    0.4901   -0.1985 H       1  UNL1        0.0618
     26 H          -4.8146    1.4171    1.6324 H       1  UNL1        0.0618
     27 H          -2.4692    0.9493    1.8495 H       1  UNL1        0.0620
     28 H           1.7128    2.0362   -1.6539 H       1  UNL1        0.0661
     29 H           3.9371    2.7908   -2.3116 H       1  UNL1        0.2921
     30 H           1.4290   -1.3964    0.6477 H       1  UNL1        0.0692
@<TRIPOS>UNITY_ATOM_ATTR
15 1
charge -1
17 1
charge 1
19 1
charge -1
@<TRIPOS>BOND
     1     1     2    2
     2     2     3    1
     3     2    10    1
     4     3     4    1
     5     4     5   ar
     6     4     9   ar
     7     5     6   ar
     8     6     7   ar
     9     7     8   ar
    10     8     9   ar
    11    10    11   ar
    12    10    20   ar
    13    11    12   ar
    14    12    13    1
    15    12    14   ar
    16    14    15    1
    17    14    16   ar
    18    16    17    1
    19    16    20   ar
    20    17    18    2
    21    17    19    1
    22     3    21    1
    23     3    22    1
    24     5    23    1
    25     6    24    1
    26     7    25    1
    27     8    26    1
    28     9    27    1
    29    11    28    1
    30    13    29    1
    31    20    30    1
@<TRIPOS>MOLECULE
../data/bude_mols_rdkit_confs_charged/molecule_44.pdb
 30 31 0 0 0
SMALL
GASTEIGER

@<TRIPOS>ATOM
      1 O           0.4780    0.5490    1.4240 O.2     1  UNL1       -0.2917
      2 C           0.0990    0.0920    0.3010 C.2     1  UNL1        0.1678
      3 C           1.1410   -0.3980   -0.6070 C.3     1  UNL1        0.0356
      4 C           2.5100   -0.2570   -0.0080 C.ar    1  UNL1       -0.0399
      5 C           3.2600    0.8930   -0.2080 C.ar    1  UNL1       -0.0582
      6 C           4.5110    0.9870    0.3570 C.ar    1  UNL1       -0.0615
      7 C           4.9970   -0.0590    1.1110 C.ar    1  UNL1       -0.0617
      8 C           4.2480   -1.2050    1.3090 C.ar    1  UNL1       -0.0615
      9 C           2.9940   -1.3030    0.7440 C.ar    1  UNL1       -0.0582
     10 C          -1.3100    0.0830   -0.0090 C.ar    1  UNL1        0.0275
     11 C          -1.7830   -0.3990   -1.2090 C.ar    1  UNL1       -0.0099
     12 C          -3.1560   -0.3910   -1.4720 C.ar    1  UNL1        0.1163
     13 O          -3.5860   -0.8840   -2.6890 O.3     1  UNL1       -0.5071
     14 C          -4.0740    0.0880   -0.5660 C.ar    1  UNL1        0.0141
     15 O          -5.4420    0.0810   -0.8650 O.co2   1  UNL1       -0.8670
     16 C          -3.5950    0.5700    0.6340 C.ar    1  UNL1        0.2697
     17 N          -4.5510    1.0630    1.5660 N.pl3   1  UNL1        0.0791
     18 O          -4.3070    1.0330    2.7910 O.2     1  UNL1        0.0414
     19 O          -5.7610    1.5830    1.1720 O.co2   1  UNL1       -0.5761
     20 C          -2.2400    0.5590    0.8900 C.ar    1  UNL1        0.0257
     21 H           1.1008    0.1641   -1.5166 H       1  UNL1        0.0394
     22 H           0.9623   -1.4369   -0.7903 H       1  UNL1        0.0394
     23 H           2.8837    1.6693   -0.7743 H       1  UNL1        0.0620
     24 H           5.0817    1.8354    0.2170 H       1  UNL1        0.0618
     25 H           5.9351    0.0138    1.5349 H       1  UNL1        0.0618
     26 H           4.6250   -1.9809    1.8754 H       1  UNL1        0.0618
     27 H           2.4242   -2.1521    0.8836 H       1  UNL1        0.0620
     28 H          -1.1244   -0.7659   -1.9137 H       1  UNL1        0.0661
     29 H          -2.9636   -1.2110   -3.3084 H       1  UNL1        0.2921
     30 H          -1.9071    0.9239    1.7961 H       1  UNL1        0.0692
@<TRIPOS>UNITY_ATOM_ATTR
15 1
charge -1
17 1
charge 1
19 1
charge -1
@<TRIPOS>BOND
     1     1     2    2
     2     2     3    1
     3     2    10    1
     4     3     4    1
     5     4     5   ar
     6     4     9   ar
     7     5     6   ar
     8     6     7   ar
     9     7     8   ar
    10     8     9   ar
    11    10    11   ar
    12    10    20   ar
    13    11    12   ar
    14    12    13    1
    15    12    14   ar
    16    14    15    1
    17    14    16   ar
    18    16    17    1
    19    16    20   ar
    20    17    18    2
    21    17    19    1
    22     3    21    1
    23     3    22    1
    24     5    23    1
    25     6    24    1
    26     7    25    1
    27     8    26    1
    28     9    27    1
    29    11    28    1
    30    13    29    1
    31    20    30    1
@<TRIPOS>MOLECULE
../data/bude_mols_rdkit_confs_charged/molecule_44.pdb
 30 31 0 0 0
SMALL
GASTEIGER

@<TRIPOS>ATOM
      1 O          -0.5530    0.0740   -1.4690 O.2     1  UNL1       -0.2917
      2 C          -0.0460    0.0280   -0.3000 C.2     1  UNL1        0.1678
      3 C          -0.9420    0.1440    0.8570 C.3     1  UNL1        0.0356
      4 C          -2.3560    0.2990    0.4400 C.ar    1  UNL1       -0.0399
      5 C          -3.1380   -0.8300    0.2860 C.ar    1  UNL1       -0.0582
      6 C          -4.4580   -0.7350   -0.1010 C.ar    1  UNL1       -0.0615
      7 C          -5.0560    0.4810   -0.3500 C.ar    1  UNL1       -0.0617
      8 C          -4.2690    1.5970   -0.1930 C.ar    1  UNL1       -0.0615
      9 C          -2.9400    1.5180    0.1950 C.ar    1  UNL1       -0.0582
     10 C           1.3940   -0.1370   -0.1730 C.ar    1  UNL1        0.0275
     11 C           1.9560   -0.1920    1.0890 C.ar    1  UNL1       -0.0099
     12 C           3.3090   -0.3460    1.2800 C.ar    1  UNL1        0.1163
     13 O           3.8080   -0.3930    2.5680 O.3     1  UNL1       -0.5071
     14 C           4.0810   -0.4430    0.1490 C.ar    1  UNL1        0.0141
     15 O           5.4550   -0.6000    0.3110 O.co2   1  UNL1       -0.8670
     16 C           3.5620   -0.3940   -1.1440 C.ar    1  UNL1        0.2697
     17 N           4.4270   -0.5010   -2.2590 N.pl3   1  UNL1        0.0791
     18 O           4.1010    0.0260   -3.3230 O.2     1  UNL1        0.0414
     19 O           5.5980   -1.1790   -2.1430 O.co2   1  UNL1       -0.5761
     20 C           2.2010   -0.2380   -1.2800 C.ar    1  UNL1        0.0257
     21 H          -0.6548    0.9980    1.4342 H       1  UNL1        0.0394
     22 H          -0.8602   -0.7531    1.4344 H       1  UNL1        0.0394
     23 H          -2.7271   -1.7598    0.4636 H       1  UNL1        0.0620
     24 H          -5.0133   -1.5984   -0.2071 H       1  UNL1        0.0618
     25 H          -6.0441    0.5504   -0.6395 H       1  UNL1        0.0618
     26 H          -4.6816    2.5262   -0.3701 H       1  UNL1        0.0618
     27 H          -2.3853    2.3818    0.3005 H       1  UNL1        0.0620
     28 H           1.3405   -0.1150    1.9138 H       1  UNL1        0.0661
     29 H           3.2260   -0.3208    3.2988 H       1  UNL1        0.2921
     30 H           1.7830   -0.1965   -2.2227 H       1  UNL1        0.0692
@<TRIPOS>UNITY_ATOM_ATTR
15 1
charge -1
17 1
charge 1
19 1
charge -1
@<TRIPOS>BOND
     1     1     2    2
     2     2     3    1
     3     2    10    1
     4     3     4    1
     5     4     5   ar
     6     4     9   ar
     7     5     6   ar
     8     6     7   ar
     9     7     8   ar
    10     8     9   ar
    11    10    11   ar
    12    10    20   ar
    13    11    12   ar
    14    12    13    1
    15    12    14   ar
    16    14    15    1
    17    14    16   ar
    18    16    17    1
    19    16    20   ar
    20    17    18    2
    21    17    19    1
    22     3    21    1
    23     3    22    1
    24     5    23    1
    25     6    24    1
    26     7    25    1
    27     8    26    1
    28     9    27    1
    29    11    28    1
    30    13    29    1
    31    20    30    1
@<TRIPOS>MOLECULE
../data/bude_mols_rdkit_confs_charged/molecule_44.pdb
 30 31 0 0 0
SMALL
GASTEIGER

@<TRIPOS>ATOM
      1 O          -0.3590    0.7950   -2.2070 O.2     1  UNL1       -0.2917
      2 C          -0.0070   -0.0310   -1.3190 C.2     1  UNL1        0.1678
      3 C          -0.9730   -1.0600   -0.9490 C.3     1  UNL1        0.0356
      4 C          -2.2000   -0.4650   -0.2960 C.ar    1  UNL1       -0.0399
      5 C          -3.2570    0.0060   -1.0570 C.ar    1  UNL1       -0.0582
      6 C          -4.3910    0.5490   -0.4870 C.ar    1  UNL1       -0.0615
      7 C          -4.4940    0.6330    0.8930 C.ar    1  UNL1       -0.0617
      8 C          -3.4380    0.1610    1.6400 C.ar    1  UNL1       -0.0615
      9 C          -2.3010   -0.3830    1.0800 C.ar    1  UNL1       -0.0582
     10 C           1.3070    0.1020   -0.7420 C.ar    1  UNL1        0.0275
     11 C           2.1850    1.0960   -1.2020 C.ar    1  UNL1       -0.0099
     12 C           3.4130    1.2130   -0.6290 C.ar    1  UNL1        0.1163
     13 O           4.2710    2.2000   -1.0950 O.3     1  UNL1       -0.5071
     14 C           3.8020    0.3760    0.3890 C.ar    1  UNL1        0.0141
     15 O           5.0560    0.4930    0.9770 O.co2   1  UNL1       -0.8670
     16 C           2.9570   -0.6160    0.8660 C.ar    1  UNL1        0.2697
     17 N           3.3520   -1.4810    1.9160 N.pl3   1  UNL1        0.0791
     18 O           4.1200   -1.0980    2.8050 O.2     1  UNL1        0.0414
     19 O           2.8830   -2.7610    1.9580 O.co2   1  UNL1       -0.5761
     20 C           1.7070   -0.7260    0.2730 C.ar    1  UNL1        0.0257
     21 H          -0.5106   -1.7397   -0.2641 H       1  UNL1        0.0394
     22 H          -1.2809   -1.5650   -1.8406 H       1  UNL1        0.0394
     23 H          -3.1947   -0.0509   -2.0855 H       1  UNL1        0.0620
     24 H          -5.1589    0.8910   -1.0857 H       1  UNL1        0.0618
     25 H          -5.3311    1.0344    1.3437 H       1  UNL1        0.0618
     26 H          -3.5003    0.2170    2.6686 H       1  UNL1        0.0618
     27 H          -1.5349   -0.7247    1.6812 H       1  UNL1        0.0620
     28 H           1.9022    1.7301   -1.9655 H       1  UNL1        0.0661
     29 H           3.9993    2.7673   -1.7895 H       1  UNL1        0.2921
     30 H           1.0580   -1.4552    0.6077 H       1  UNL1        0.0692
@<TRIPOS>UNITY_ATOM_ATTR
15 1
charge -1
17 1
charge 1
19 1
charge -1
@<TRIPOS>BOND
     1     1     2    2
     2     2     3    1
     3     2    10    1
     4     3     4    1
     5     4     5   ar
     6     4     9   ar
     7     5     6   ar
     8     6     7   ar
     9     7     8   ar
    10     8     9   ar
    11    10    11   ar
    12    10    20   ar
    13    11    12   ar
    14    12    13    1
    15    12    14   ar
    16    14    15    1
    17    14    16   ar
    18    16    17    1
    19    16    20   ar
    20    17    18    2
    21    17    19    1
    22     3    21    1
    23     3    22    1
    24     5    23    1
    25     6    24    1
    26     7    25    1
    27     8    26    1
    28     9    27    1
    29    11    28    1
    30    13    29    1
    31    20    30    1
@<TRIPOS>MOLECULE
../data/bude_mols_rdkit_confs_charged/molecule_44.pdb
 30 31 0 0 0
SMALL
GASTEIGER

@<TRIPOS>ATOM
      1 O          -0.4960    1.2470   -0.8710 O.2     1  UNL1       -0.2917
      2 C          -0.0620    0.2860   -0.2220 C.2     1  UNL1        0.1678
      3 C          -1.0130   -0.6230    0.4580 C.3     1  UNL1        0.0356
      4 C          -2.4070   -0.1820    0.2230 C.ar    1  UNL1       -0.0399
      5 C          -3.0060    0.7120    1.1060 C.ar    1  UNL1       -0.0582
      6 C          -4.2990    1.1580    0.9380 C.ar    1  UNL1       -0.0615
      7 C          -4.9890    0.6760   -0.1540 C.ar    1  UNL1       -0.0617
      8 C          -4.4230   -0.2050   -1.0380 C.ar    1  UNL1       -0.0615
      9 C          -3.1320   -0.6370   -0.8520 C.ar    1  UNL1       -0.0582
     10 C           1.3660    0.0300   -0.1130 C.ar    1  UNL1        0.0275
     11 C           1.8520   -1.0430    0.6130 C.ar    1  UNL1       -0.0099
     12 C           3.2060   -1.2790    0.7120 C.ar    1  UNL1        0.1163
     13 O           3.6520   -2.3650    1.4480 O.3     1  UNL1       -0.5071
     14 C           4.1280   -0.4610    0.0970 C.ar    1  UNL1        0.0141
     15 O           5.5040   -0.7140    0.2070 O.co2   1  UNL1       -0.8670
     16 C           3.6650    0.6140   -0.6310 C.ar    1  UNL1        0.2697
     17 N           4.6120    1.4580   -1.2660 N.pl3   1  UNL1        0.0791
     18 O           5.7180    1.6010   -0.7100 O.2     1  UNL1        0.0414
     19 O           4.3630    2.1120   -2.4470 O.co2   1  UNL1       -0.5761
     20 C           2.3080    0.8390   -0.7230 C.ar    1  UNL1        0.0257
     21 H          -0.8144   -0.6185    1.5094 H       1  UNL1        0.0394
     22 H          -0.8906   -1.6105    0.0647 H       1  UNL1        0.0394
     23 H          -2.4628    1.0527    1.9147 H       1  UNL1        0.0620
     24 H          -4.7310    1.8223    1.5992 H       1  UNL1        0.0618
     25 H          -5.9603    0.9878   -0.3103 H       1  UNL1        0.0618
     26 H          -4.9680   -0.5450   -1.8457 H       1  UNL1        0.0618
     27 H          -2.7079   -1.3015   -1.5180 H       1  UNL1        0.0620
     28 H           1.1900   -1.6765    1.0878 H       1  UNL1        0.0661
     29 H           3.0352   -2.9292    1.8713 H       1  UNL1        0.2921
     30 H           1.9796    1.6485   -1.2724 H       1  UNL1        0.0692
@<TRIPOS>UNITY_ATOM_ATTR
15 1
charge -1
17 1
charge 1
19 1
charge -1
@<TRIPOS>BOND
     1     1     2    2
     2     2     3    1
     3     2    10    1
     4     3     4    1
     5     4     5   ar
     6     4     9   ar
     7     5     6   ar
     8     6     7   ar
     9     7     8   ar
    10     8     9   ar
    11    10    11   ar
    12    10    20   ar
    13    11    12   ar
    14    12    13    1
    15    12    14   ar
    16    14    15    1
    17    14    16   ar
    18    16    17    1
    19    16    20   ar
    20    17    18    2
    21    17    19    1
    22     3    21    1
    23     3    22    1
    24     5    23    1
    25     6    24    1
    26     7    25    1
    27     8    26    1
    28     9    27    1
    29    11    28    1
    30    13    29    1
    31    20    30    1
@<TRIPOS>MOLECULE
../data/bude_mols_rdkit_confs_charged/molecule_44.pdb
 30 31 0 0 0
SMALL
GASTEIGER

@<TRIPOS>ATOM
      1 O           0.2090    1.6840   -1.5030 O.2     1  UNL1       -0.2917
      2 C          -0.0230    0.4780   -1.1300 C.2     1  UNL1        0.1678
      3 C           1.0440   -0.5070   -1.3160 C.3     1  UNL1        0.0356
      4 C           2.2500   -0.0780   -0.5220 C.ar    1  UNL1       -0.0399
      5 C           3.1820    0.7720   -1.0930 C.ar    1  UNL1       -0.0582
      6 C           4.2920    1.1740   -0.3640 C.ar    1  UNL1       -0.0615
      7 C           4.5030    0.7430    0.9460 C.ar    1  UNL1       -0.0617
      8 C           3.5510   -0.1000    1.4720 C.ar    1  UNL1       -0.0615
      9 C           2.4380   -0.5160    0.7700 C.ar    1  UNL1       -0.0582
     10 C          -1.3350    0.2290   -0.5580 C.ar    1  UNL1        0.0275
     11 C          -2.2870    1.2410   -0.4440 C.ar    1  UNL1       -0.0099
     12 C          -3.5240    1.0230    0.1050 C.ar    1  UNL1        0.1163
     13 O          -4.4750    2.0560    0.2130 O.3     1  UNL1       -0.5071
     14 C          -3.8350   -0.2360    0.5590 C.ar    1  UNL1        0.0141
     15 O          -5.0740   -0.5040    1.1230 O.co2   1  UNL1       -0.8670
     16 C          -2.9410   -1.2920    0.4800 C.ar    1  UNL1        0.2697
     17 N          -3.2590   -2.5840    0.9560 N.pl3   1  UNL1        0.0791
     18 O          -2.7150   -3.5820    0.4770 O.2     1  UNL1        0.0414
     19 O          -4.1790   -2.6950    1.9600 O.co2   1  UNL1       -0.5761
     20 C          -1.7070   -1.0110   -0.0850 C.ar    1  UNL1        0.0257
     21 H           1.3000   -0.5673   -2.3532 H       1  UNL1        0.0394
     22 H           0.7125   -1.4673   -0.9802 H       1  UNL1        0.0394
     23 H           3.0511    1.1064   -2.0605 H       1  UNL1        0.0620
     24 H           4.9788    1.8078   -0.8018 H       1  UNL1        0.0618
     25 H           5.3277    1.0401    1.4906 H       1  UNL1        0.0618
     26 H           3.6755   -0.4378    2.4392 H       1  UNL1        0.0618
     27 H           1.7524   -1.1499    1.2095 H       1  UNL1        0.0620
     28 H          -2.0525    2.1865   -0.7845 H       1  UNL1        0.0661
     29 H          -4.2688    2.9167   -0.0948 H       1  UNL1        0.2921
     30 H          -1.0224   -1.7800   -0.1561 H       1  UNL1        0.0692
@<TRIPOS>UNITY_ATOM_ATTR
15 1
charge -1
17 1
charge 1
19 1
charge -1
@<TRIPOS>BOND
     1     1     2    2
     2     2     3    1
     3     2    10    1
     4     3     4    1
     5     4     5   ar
     6     4     9   ar
     7     5     6   ar
     8     6     7   ar
     9     7     8   ar
    10     8     9   ar
    11    10    11   ar
    12    10    20   ar
    13    11    12   ar
    14    12    13    1
    15    12    14   ar
    16    14    15    1
    17    14    16   ar
    18    16    17    1
    19    16    20   ar
    20    17    18    2
    21    17    19    1
    22     3    21    1
    23     3    22    1
    24     5    23    1
    25     6    24    1
    26     7    25    1
    27     8    26    1
    28     9    27    1
    29    11    28    1
    30    13    29    1
    31    20    30    1
