@<TRIPOS>MOLECULE
../data/bude_mols_rdkit_confs_charged/molecule_46.pdb
 31 32 0 0 0
SMALL
GASTEIGER

@<TRIPOS>ATOM
      1 O          -3.0240    3.4180    2.2120 O.2     1  UNL1       -0.2451
      2 C          -3.6650    2.5600    1.5530 C.2     1  UNL1        0.3365
      3 O          -5.0230    2.7730    1.3480 O.3     1  UNL1       -0.4771
      4 C          -2.9850    1.3840    1.0130 C.ar    1  UNL1        0.0610
      5 C          -1.5920    1.2850    1.0870 C.ar    1  UNL1       -0.0061
      6 C          -0.8960    0.2240    0.4670 C.ar    1  UNL1        0.1282
      7 O           0.5240    0.1740    0.5530 O.3     1  UNL1       -0.4870
      8 C           1.1180   -0.8470   -0.2340 C.3     1  UNL1        0.1173
      9 C           2.6030   -0.6930   -0.2540 C.ar    1  UNL1        0.0248
     10 C           3.5020   -1.0000    0.7010 C.ar    1  UNL1       -0.0526
     11 C           4.8890   -0.8690    0.5650 C.ar    1  UNL1       -0.0612
     12 C           5.3910   -0.3910   -0.6480 C.ar    1  UNL1       -0.0590
     13 C           4.5160   -0.0680   -1.6560 C.ar    1  UNL1       -0.0261
     14 C           3.1750   -0.2010   -1.4960 C.ar    1  UNL1        0.1298
     15 F           2.3100    0.1670   -2.4680 F       1  UNL1       -0.2051
     16 C          -1.5940   -0.7110   -0.1930 C.ar    1  UNL1        0.0567
     17 C          -3.0150   -0.6660   -0.2990 C.ar    1  UNL1        0.2698
     18 N          -3.6480   -1.7600   -0.9270 N.pl3   1  UNL1        0.0791
     19 O          -3.1880   -2.8960   -0.8420 O.2     1  UNL1        0.0414
     20 O          -4.8100   -1.5580   -1.5670 O.co2   1  UNL1       -0.5761
     21 C          -3.6340    0.3890    0.3090 C.ar    1  UNL1       -0.0142
     22 O          -5.0360    0.4830    0.2140 O.co2   1  UNL1       -0.8688
     23 H          -5.5265    2.1509    0.8608 H       1  UNL1        0.2954
     24 H          -1.0615    2.0024    1.6056 H       1  UNL1        0.0662
     25 H           0.7437   -0.7835   -1.2344 H       1  UNL1        0.0749
     26 H           0.8739   -1.7982    0.1908 H       1  UNL1        0.0749
     27 H           3.1416   -1.3582    1.5992 H       1  UNL1        0.0622
     28 H           5.5235   -1.1187    1.3397 H       1  UNL1        0.0618
     29 H           6.4080   -0.2818   -0.7850 H       1  UNL1        0.0618
     30 H           4.8857    0.2830   -2.5533 H       1  UNL1        0.0646
     31 H          -1.0853   -1.4900   -0.6396 H       1  UNL1        0.0722
@<TRIPOS>UNITY_ATOM_ATTR
18 1
charge 1
20 1
charge -1
22 1
charge -1
@<TRIPOS>BOND
     1     1     2    2
     2     2     3    1
     3     2     4    1
     4     4     5   ar
     5     4    21   ar
     6     5     6   ar
     7     6     7    1
     8     6    16   ar
     9     7     8    1
    10     8     9    1
    11     9    10   ar
    12     9    14   ar
    13    10    11   ar
    14    11    12   ar
    15    12    13   ar
    16    13    14   ar
    17    14    15    1
    18    16    17   ar
    19    17    18    1
    20    17    21   ar
    21    18    19    2
    22    18    20    1
    23    21    22    1
    24     3    23    1
    25     5    24    1
    26     8    25    1
    27     8    26    1
    28    10    27    1
    29    11    28    1
    30    12    29    1
    31    13    30    1
    32    16    31    1
@<TRIPOS>MOLECULE
../data/bude_mols_rdkit_confs_charged/molecule_46.pdb
 31 32 0 0 0
SMALL
GASTEIGER

@<TRIPOS>ATOM
      1 O           5.5960    1.5590    0.3950 O.2     1  UNL1       -0.2451
      2 C           4.3940    1.8690    0.2950 C.2     1  UNL1        0.3365
      3 O           4.1020    3.2340    0.2510 O.3     1  UNL1       -0.4771
      4 C           3.3620    0.8570    0.2380 C.ar    1  UNL1        0.0610
      5 C           2.0170    1.1630    0.1140 C.ar    1  UNL1       -0.0061
      6 C           1.0060    0.2070    0.0710 C.ar    1  UNL1        0.1282
      7 O          -0.3460    0.5560   -0.0620 O.3     1  UNL1       -0.4870
      8 C          -1.2650   -0.5080   -0.0350 C.3     1  UNL1        0.1173
      9 C          -2.6710   -0.0790   -0.1960 C.ar    1  UNL1        0.0248
     10 C          -3.4330   -0.7360   -1.1450 C.ar    1  UNL1       -0.0526
     11 C          -4.7550   -0.4870   -1.3680 C.ar    1  UNL1       -0.0612
     12 C          -5.3690    0.4880   -0.5920 C.ar    1  UNL1       -0.0590
     13 C          -4.6190    1.1600    0.3700 C.ar    1  UNL1       -0.0261
     14 C          -3.2960    0.8890    0.5720 C.ar    1  UNL1        0.1298
     15 F          -2.5530    1.5550    1.5110 F       1  UNL1       -0.2051
     16 C           1.4320   -1.1230    0.1640 C.ar    1  UNL1        0.0567
     17 C           2.7470   -1.4890    0.2860 C.ar    1  UNL1        0.2698
     18 N           3.0990   -2.8530    0.3670 N.pl3   1  UNL1        0.0791
     19 O           2.3870   -3.7350   -0.0780 O.2     1  UNL1        0.0414
     20 O           4.2650   -3.1800    1.0060 O.co2   1  UNL1       -0.5761
     21 C           3.7080   -0.4940    0.3210 C.ar    1  UNL1       -0.0142
     22 O           5.0440   -0.8640    0.4380 O.co2   1  UNL1       -0.8688
     23 H           3.2131    3.5208    0.1762 H       1  UNL1        0.2954
     24 H           1.7487    2.1574    0.0497 H       1  UNL1        0.0662
     25 H          -1.1706   -1.0130    0.9036 H       1  UNL1        0.0749
     26 H          -1.0337   -1.1440   -0.8638 H       1  UNL1        0.0749
     27 H          -2.9728   -1.4591   -1.7197 H       1  UNL1        0.0622
     28 H          -5.2814   -1.0052   -2.0887 H       1  UNL1        0.0618
     29 H          -6.3675    0.7114   -0.7266 H       1  UNL1        0.0618
     30 H          -5.0762    1.8835    0.9467 H       1  UNL1        0.0646
     31 H           0.7179   -1.8676    0.1394 H       1  UNL1        0.0722
@<TRIPOS>UNITY_ATOM_ATTR
18 1
charge 1
20 1
charge -1
22 1
charge -1
@<TRIPOS>BOND
     1     1     2    2
     2     2     3    1
     3     2     4    1
     4     4     5   ar
     5     4    21   ar
     6     5     6   ar
     7     6     7    1
     8     6    16   ar
     9     7     8    1
    10     8     9    1
    11     9    10   ar
    12     9    14   ar
    13    10    11   ar
    14    11    12   ar
    15    12    13   ar
    16    13    14   ar
    17    14    15    1
    18    16    17   ar
    19    17    18    1
    20    17    21   ar
    21    18    19    2
    22    18    20    1
    23    21    22    1
    24     3    23    1
    25     5    24    1
    26     8    25    1
    27     8    26    1
    28    10    27    1
    29    11    28    1
    30    12    29    1
    31    13    30    1
    32    16    31    1
@<TRIPOS>MOLECULE
../data/bude_mols_rdkit_confs_charged/molecule_46.pdb
 31 32 0 0 0
SMALL
GASTEIGER

@<TRIPOS>ATOM
      1 O           4.3890   -2.5120   -1.5730 O.2     1  UNL1       -0.2451
      2 C           4.5090   -1.4750   -0.9370 C.2     1  UNL1        0.3365
      3 O           5.8140   -0.9740   -0.7010 O.3     1  UNL1       -0.4771
      4 C           3.4010   -0.7060   -0.3890 C.ar    1  UNL1        0.0610
      5 C           2.1000   -1.1400   -0.5050 C.ar    1  UNL1       -0.0061
      6 C           1.0170   -0.4970    0.0550 C.ar    1  UNL1        0.1282
      7 O          -0.1880   -0.9260   -0.0360 O.3     1  UNL1       -0.4870
      8 C          -1.4500   -1.2150   -0.0140 C.3     1  UNL1        0.1173
      9 C          -2.6290   -0.3320   -0.3560 C.ar    1  UNL1        0.0248
     10 C          -2.8980    0.8910    0.1120 C.ar    1  UNL1       -0.0526
     11 C          -4.1780    1.5050    0.0270 C.ar    1  UNL1       -0.0612
     12 C          -5.2000    0.7930   -0.5630 C.ar    1  UNL1       -0.0590
     13 C          -4.9630   -0.4910   -1.0430 C.ar    1  UNL1       -0.0261
     14 C          -3.7180   -1.0420   -0.9440 C.ar    1  UNL1        0.1298
     15 F          -3.3980   -2.2850   -1.4530 F       1  UNL1       -0.2051
     16 C           1.2770    0.6730    0.7880 C.ar    1  UNL1        0.0567
     17 C           2.5220    1.1700    0.9510 C.ar    1  UNL1        0.2698
     18 N           2.7670    2.3690    1.6350 N.pl3   1  UNL1        0.0791
     19 O           3.6810    2.6770    2.3190 O.2     1  UNL1        0.0414
     20 O           1.7110    3.3280    1.4620 O.co2   1  UNL1       -0.5761
     21 C           3.5890    0.4780    0.3520 C.ar    1  UNL1       -0.0142
     22 O           4.9000    0.9680    0.4480 O.co2   1  UNL1       -0.8688
     23 H           5.9307   -0.1808   -0.2160 H       1  UNL1        0.2954
     24 H           1.9242   -2.0014   -1.0455 H       1  UNL1        0.0662
     25 H          -1.6346   -1.5296    0.9919 H       1  UNL1        0.0749
     26 H          -1.4777   -1.8492   -0.8754 H       1  UNL1        0.0749
     27 H          -2.1334    1.4196    0.5604 H       1  UNL1        0.0622
     28 H          -4.3369    2.4555    0.3962 H       1  UNL1        0.0618
     29 H          -6.1394    1.2116   -0.6485 H       1  UNL1        0.0618
     30 H          -5.7306   -1.0285   -1.4752 H       1  UNL1        0.0646
     31 H           0.4841    1.1731    1.2195 H       1  UNL1        0.0722
@<TRIPOS>UNITY_ATOM_ATTR
18 1
charge 1
20 1
charge -1
22 1
charge -1
@<TRIPOS>BOND
     1     1     2    2
     2     2     3    1
     3     2     4    1
     4     4     5   ar
     5     4    21   ar
     6     5     6   ar
     7     6     7    1
     8     6    16   ar
     9     7     8    1
    10     8     9    1
    11     9    10   ar
    12     9    14   ar
    13    10    11   ar
    14    11    12   ar
    15    12    13   ar
    16    13    14   ar
    17    14    15    1
    18    16    17   ar
    19    17    18    1
    20    17    21   ar
    21    18    19    2
    22    18    20    1
    23    21    22    1
    24     3    23    1
    25     5    24    1
    26     8    25    1
    27     8    26    1
    28    10    27    1
    29    11    28    1
    30    12    29    1
    31    13    30    1
    32    16    31    1
@<TRIPOS>MOLECULE
../data/bude_mols_rdkit_confs_charged/molecule_46.pdb
 31 32 0 0 0
SMALL
GASTEIGER

@<TRIPOS>ATOM
      1 O          -5.3380    2.1150   -0.3770 O.2     1  UNL1       -0.2451
      2 C          -4.0870    2.2200   -0.2770 C.2     1  UNL1        0.3365
      3 O          -3.5850    3.5010   -0.1150 O.3     1  UNL1       -0.4771
      4 C          -3.2140    1.0440   -0.3290 C.ar    1  UNL1        0.0610
      5 C          -1.8490    1.1850   -0.2160 C.ar    1  UNL1       -0.0061
      6 C          -0.9900    0.1090   -0.2600 C.ar    1  UNL1        0.1282
      7 O           0.3720    0.2540   -0.1470 O.3     1  UNL1       -0.4870
      8 C           1.2360   -0.8620   -0.1940 C.3     1  UNL1        0.1173
      9 C           2.6370   -0.3880   -0.0470 C.ar    1  UNL1        0.0248
     10 C           2.9160    0.9600    0.1050 C.ar    1  UNL1       -0.0526
     11 C           4.2160    1.3820    0.2400 C.ar    1  UNL1       -0.0612
     12 C           5.2930    0.5110    0.2320 C.ar    1  UNL1       -0.0590
     13 C           4.9990   -0.8360    0.0800 C.ar    1  UNL1       -0.0261
     14 C           3.6970   -1.2720   -0.0570 C.ar    1  UNL1        0.1298
     15 F           3.4760   -2.5980   -0.2020 F       1  UNL1       -0.2051
     16 C          -1.5210   -1.1490   -0.4210 C.ar    1  UNL1        0.0567
     17 C          -2.8830   -1.3050   -0.5340 C.ar    1  UNL1        0.2698
     18 N          -3.4320   -2.6230   -0.7030 N.pl3   1  UNL1        0.0791
     19 O          -2.7970   -3.5490   -1.2310 O.2     1  UNL1        0.0414
     20 O          -4.7090   -2.8980   -0.2720 O.co2   1  UNL1       -0.5761
     21 C          -3.7310   -0.2170   -0.4890 C.ar    1  UNL1       -0.0142
     22 O          -5.1040   -0.4210   -0.6080 O.co2   1  UNL1       -0.8688
     23 H          -2.6611    3.6356   -0.0355 H       1  UNL1        0.2954
     24 H          -1.4552    2.1311   -0.0939 H       1  UNL1        0.0662
     25 H           1.1229   -1.3654   -1.1314 H       1  UNL1        0.0749
     26 H           0.9966   -1.5414    0.5972 H       1  UNL1        0.0749
     27 H           2.1467    1.6478    0.1168 H       1  UNL1        0.0622
     28 H           4.3983    2.3916    0.3522 H       1  UNL1        0.0618
     29 H           6.2635    0.8467    0.3338 H       1  UNL1        0.0618
     30 H           5.7678   -1.5244    0.0692 H       1  UNL1        0.0646
     31 H          -0.9003   -1.9727   -0.4569 H       1  UNL1        0.0722
@<TRIPOS>UNITY_ATOM_ATTR
18 1
charge 1
20 1
charge -1
22 1
charge -1
@<TRIPOS>BOND
     1     1     2    2
     2     2     3    1
     3     2     4    1
     4     4     5   ar
     5     4    21   ar
     6     5     6   ar
     7     6     7    1
     8     6    16   ar
     9     7     8    1
    10     8     9    1
    11     9    10   ar
    12     9    14   ar
    13    10    11   ar
    14    11    12   ar
    15    12    13   ar
    16    13    14   ar
    17    14    15    1
    18    16    17   ar
    19    17    18    1
    20    17    21   ar
    21    18    19    2
    22    18    20    1
    23    21    22    1
    24     3    23    1
    25     5    24    1
    26     8    25    1
    27     8    26    1
    28    10    27    1
    29    11    28    1
    30    12    29    1
    31    13    30    1
    32    16    31    1
@<TRIPOS>MOLECULE
../data/bude_mols_rdkit_confs_charged/molecule_46.pdb
 31 32 0 0 0
SMALL
GASTEIGER

@<TRIPOS>ATOM
      1 O          -5.1690    1.0600   -1.4320 O.2     1  UNL1       -0.2451
      2 C          -4.2290    1.5570   -0.7700 C.2     1  UNL1        0.3365
      3 O          -4.3420    2.8770   -0.3680 O.3     1  UNL1       -0.4771
      4 C          -3.0430    0.7910   -0.4220 C.ar    1  UNL1        0.0610
      5 C          -2.0270    1.3590    0.3030 C.ar    1  UNL1       -0.0061
      6 C          -0.8690    0.6580    0.6590 C.ar    1  UNL1        0.1282
      7 O           0.1250    1.2700    1.3920 O.3     1  UNL1       -0.4870
      8 C           1.2970    0.6410    1.7520 C.3     1  UNL1        0.1173
      9 C           2.1930    0.2360    0.6430 C.ar    1  UNL1        0.0248
     10 C           2.0030    0.4900   -0.6790 C.ar    1  UNL1       -0.0526
     11 C           2.9510    0.0720   -1.6090 C.ar    1  UNL1       -0.0612
     12 C           4.1010   -0.6020   -1.2390 C.ar    1  UNL1       -0.0590
     13 C           4.3010   -0.8630    0.1060 C.ar    1  UNL1       -0.0261
     14 C           3.3480   -0.4400    1.0030 C.ar    1  UNL1        0.1298
     15 F           3.6000   -0.7270    2.3200 F       1  UNL1       -0.2051
     16 C          -0.7620   -0.6570    0.2570 C.ar    1  UNL1        0.0567
     17 C          -1.7780   -1.2710   -0.4850 C.ar    1  UNL1        0.2698
     18 N          -1.6140   -2.6260   -0.8720 N.pl3   1  UNL1        0.0791
     19 O          -2.0830   -3.0960   -1.9240 O.2     1  UNL1        0.0414
     20 O          -0.9060   -3.4910   -0.0680 O.co2   1  UNL1       -0.5761
     21 C          -2.8740   -0.5310   -0.7950 C.ar    1  UNL1       -0.0142
     22 O          -3.8840   -1.1210   -1.5250 O.co2   1  UNL1       -0.8688
     23 H          -3.6548    3.2760    0.1284 H       1  UNL1        0.2954
     24 H          -2.1200    2.3435    0.5982 H       1  UNL1        0.0662
     25 H           1.0385   -0.2405    2.3006 H       1  UNL1        0.0749
     26 H           1.8485    1.3656    2.3139 H       1  UNL1        0.0749
     27 H           1.1575    0.9918   -0.9926 H       1  UNL1        0.0622
     28 H           2.7903    0.2718   -2.6086 H       1  UNL1        0.0618
     29 H           4.7906   -0.9019   -1.9458 H       1  UNL1        0.0618
     30 H           5.1447   -1.3628    0.4276 H       1  UNL1        0.0646
     31 H           0.0809   -1.1972    0.5073 H       1  UNL1        0.0722
@<TRIPOS>UNITY_ATOM_ATTR
18 1
charge 1
20 1
charge -1
22 1
charge -1
@<TRIPOS>BOND
     1     1     2    2
     2     2     3    1
     3     2     4    1
     4     4     5   ar
     5     4    21   ar
     6     5     6   ar
     7     6     7    1
     8     6    16   ar
     9     7     8    1
    10     8     9    1
    11     9    10   ar
    12     9    14   ar
    13    10    11   ar
    14    11    12   ar
    15    12    13   ar
    16    13    14   ar
    17    14    15    1
    18    16    17   ar
    19    17    18    1
    20    17    21   ar
    21    18    19    2
    22    18    20    1
    23    21    22    1
    24     3    23    1
    25     5    24    1
    26     8    25    1
    27     8    26    1
    28    10    27    1
    29    11    28    1
    30    12    29    1
    31    13    30    1
    32    16    31    1
@<TRIPOS>MOLECULE
../data/bude_mols_rdkit_confs_charged/molecule_46.pdb
 31 32 0 0 0
SMALL
GASTEIGER

@<TRIPOS>ATOM
      1 O          -5.3390    1.5170   -1.4730 O.2     1  UNL1       -0.2451
      2 C          -4.1090    1.7270   -1.5390 C.2     1  UNL1        0.3365
      3 O          -3.6860    2.8270   -2.2470 O.3     1  UNL1       -0.4771
      4 C          -3.1980    0.8030   -0.8680 C.ar    1  UNL1        0.0610
      5 C          -1.8290    0.9720   -0.9000 C.ar    1  UNL1       -0.0061
      6 C          -0.9650    0.0960   -0.2640 C.ar    1  UNL1        0.1282
      7 O           0.4050    0.2700   -0.3000 O.3     1  UNL1       -0.4870
      8 C           1.2390   -0.6520    0.3650 C.3     1  UNL1        0.1173
      9 C           2.6380   -0.2560    0.1820 C.ar    1  UNL1        0.0248
     10 C           2.9270    0.8710   -0.5540 C.ar    1  UNL1       -0.0526
     11 C           4.2220    1.2690   -0.7440 C.ar    1  UNL1       -0.0612
     12 C           5.2290    0.5030   -0.1730 C.ar    1  UNL1       -0.0590
     13 C           4.9540   -0.6270    0.5660 C.ar    1  UNL1       -0.0261
     14 C           3.6650   -1.0130    0.7490 C.ar    1  UNL1        0.1298
     15 F           3.3740   -2.1290    1.4780 F       1  UNL1       -0.2051
     16 C          -1.5040   -0.9780    0.4200 C.ar    1  UNL1        0.0567
     17 C          -2.8750   -1.1840    0.4750 C.ar    1  UNL1        0.2698
     18 N          -3.4010   -2.2970    1.1870 N.pl3   1  UNL1        0.0791
     19 O          -4.5170   -2.2010    1.7440 O.2     1  UNL1        0.0414
     20 O          -2.7240   -3.4870    1.2870 O.co2   1  UNL1       -0.5761
     21 C          -3.6760   -0.2850   -0.1710 C.ar    1  UNL1       -0.0142
     22 O          -5.0720   -0.4400   -0.1500 O.co2   1  UNL1       -0.8688
     23 H          -2.7708    3.0153   -2.3175 H       1  UNL1        0.2954
     24 H          -1.4365    1.7763   -1.4139 H       1  UNL1        0.0662
     25 H           1.0877   -1.6298   -0.0423 H       1  UNL1        0.0749
     26 H           1.0022   -0.6630    1.4084 H       1  UNL1        0.0749
     27 H           2.1581    1.4217   -0.9670 H       1  UNL1        0.0622
     28 H           4.4435    2.1130   -1.2950 H       1  UNL1        0.0618
     29 H           6.2119    0.7880   -0.3058 H       1  UNL1        0.0618
     30 H           5.7237   -1.1771    0.9783 H       1  UNL1        0.0646
     31 H          -0.8737   -1.6398    0.8994 H       1  UNL1        0.0722
@<TRIPOS>UNITY_ATOM_ATTR
18 1
charge 1
20 1
charge -1
22 1
charge -1
@<TRIPOS>BOND
     1     1     2    2
     2     2     3    1
     3     2     4    1
     4     4     5   ar
     5     4    21   ar
     6     5     6   ar
     7     6     7    1
     8     6    16   ar
     9     7     8    1
    10     8     9    1
    11     9    10   ar
    12     9    14   ar
    13    10    11   ar
    14    11    12   ar
    15    12    13   ar
    16    13    14   ar
    17    14    15    1
    18    16    17   ar
    19    17    18    1
    20    17    21   ar
    21    18    19    2
    22    18    20    1
    23    21    22    1
    24     3    23    1
    25     5    24    1
    26     8    25    1
    27     8    26    1
    28    10    27    1
    29    11    28    1
    30    12    29    1
    31    13    30    1
    32    16    31    1
@<TRIPOS>MOLECULE
../data/bude_mols_rdkit_confs_charged/molecule_46.pdb
 31 32 0 0 0
SMALL
GASTEIGER

@<TRIPOS>ATOM
      1 O           3.0850   -2.1850   -2.0180 O.2     1  UNL1       -0.2451
      2 C           3.7120   -1.3240   -1.3500 C.2     1  UNL1        0.3365
      3 O           5.0990   -1.3340   -1.4400 O.3     1  UNL1       -0.4771
      4 C           3.0140   -0.3540   -0.5170 C.ar    1  UNL1        0.0610
      5 C           1.6450   -0.3930   -0.4700 C.ar    1  UNL1       -0.0061
      6 C           0.8980    0.4830    0.2880 C.ar    1  UNL1        0.1282
      7 O          -0.4850    0.4160    0.3130 O.3     1  UNL1       -0.4870
      8 C          -1.1480   -0.5600   -0.4460 C.3     1  UNL1        0.1173
      9 C          -2.6240   -0.4760   -0.2920 C.ar    1  UNL1        0.0248
     10 C          -3.1630    0.4790    0.5200 C.ar    1  UNL1       -0.0526
     11 C          -4.5500    0.5750    0.6780 C.ar    1  UNL1       -0.0612
     12 C          -5.3910   -0.2790    0.0290 C.ar    1  UNL1       -0.0590
     13 C          -4.8650   -1.2460   -0.7930 C.ar    1  UNL1       -0.0261
     14 C          -3.4770   -1.3330   -0.9440 C.ar    1  UNL1        0.1298
     15 F          -2.9410   -2.2790   -1.7480 F       1  UNL1       -0.2051
     16 C           1.5780    1.4330    1.0260 C.ar    1  UNL1        0.0567
     17 C           2.9560    1.5020    1.0030 C.ar    1  UNL1        0.2698
     18 N           3.5980    2.4970    1.7790 N.pl3   1  UNL1        0.0791
     19 O           4.7230    2.2590    2.2590 O.2     1  UNL1        0.0414
     20 O           3.0480    3.7300    2.0410 O.co2   1  UNL1       -0.5761
     21 C           3.6580    0.5960    0.2220 C.ar    1  UNL1       -0.0142
     22 O           5.0500    0.6720    0.2040 O.co2   1  UNL1       -0.8688
     23 H           5.6043   -0.7091   -0.9581 H       1  UNL1        0.2954
     24 H           1.1521   -1.1091   -1.0261 H       1  UNL1        0.0662
     25 H          -0.8216   -1.5274   -0.1260 H       1  UNL1        0.0749
     26 H          -0.9128   -0.3941   -1.4766 H       1  UNL1        0.0749
     27 H          -2.5435    1.1349    1.0210 H       1  UNL1        0.0622
     28 H          -4.9421    1.3033    1.2952 H       1  UNL1        0.0618
     29 H          -6.4124   -0.2000    0.1538 H       1  UNL1        0.0618
     30 H          -5.4866   -1.9006   -1.2932 H       1  UNL1        0.0646
     31 H           1.0462    2.1023    1.6042 H       1  UNL1        0.0722
@<TRIPOS>UNITY_ATOM_ATTR
18 1
charge 1
20 1
charge -1
22 1
charge -1
@<TRIPOS>BOND
     1     1     2    2
     2     2     3    1
     3     2     4    1
     4     4     5   ar
     5     4    21   ar
     6     5     6   ar
     7     6     7    1
     8     6    16   ar
     9     7     8    1
    10     8     9    1
    11     9    10   ar
    12     9    14   ar
    13    10    11   ar
    14    11    12   ar
    15    12    13   ar
    16    13    14   ar
    17    14    15    1
    18    16    17   ar
    19    17    18    1
    20    17    21   ar
    21    18    19    2
    22    18    20    1
    23    21    22    1
    24     3    23    1
    25     5    24    1
    26     8    25    1
    27     8    26    1
    28    10    27    1
    29    11    28    1
    30    12    29    1
    31    13    30    1
    32    16    31    1
@<TRIPOS>MOLECULE
../data/bude_mols_rdkit_confs_charged/molecule_46.pdb
 31 32 0 0 0
SMALL
GASTEIGER

@<TRIPOS>ATOM
      1 O          -5.0550    0.2960   -1.7290 O.2     1  UNL1       -0.2451
      2 C          -4.1310    1.0360   -1.3510 C.2     1  UNL1        0.3365
      3 O          -4.1540    2.3850   -1.6110 O.3     1  UNL1       -0.4771
      4 C          -3.0070    0.4830   -0.6250 C.ar    1  UNL1        0.0610
      5 C          -1.9720    1.2830   -0.1970 C.ar    1  UNL1       -0.0061
      6 C          -0.8690    0.8100    0.5020 C.ar    1  UNL1        0.1282
      7 O           0.0960    1.6920    0.8810 O.3     1  UNL1       -0.4870
      8 C           1.2760    1.4730    1.5590 C.3     1  UNL1        0.1173
      9 C           2.2290    0.6170    0.8070 C.ar    1  UNL1        0.0248
     10 C           1.9930    0.1790   -0.4660 C.ar    1  UNL1       -0.0526
     11 C           2.9370   -0.6000   -1.1480 C.ar    1  UNL1       -0.0612
     12 C           4.1190   -0.9280   -0.5270 C.ar    1  UNL1       -0.0590
     13 C           4.3630   -0.4940    0.7410 C.ar    1  UNL1       -0.0261
     14 C           3.4390    0.2650    1.4010 C.ar    1  UNL1        0.1298
     15 F           3.6650    0.7050    2.6650 F       1  UNL1       -0.2051
     16 C          -0.8590   -0.5410    0.7550 C.ar    1  UNL1        0.0567
     17 C          -1.8600   -1.4020    0.3560 C.ar    1  UNL1        0.2698
     18 N          -1.7600   -2.7990    0.6680 N.pl3   1  UNL1        0.0791
     19 O          -1.1060   -3.1270    1.6770 O.2     1  UNL1        0.0414
     20 O          -2.3510   -3.7520   -0.0990 O.co2   1  UNL1       -0.5761
     21 C          -2.9210   -0.8810   -0.3290 C.ar    1  UNL1       -0.0142
     22 O          -3.9560   -1.7120   -0.7510 O.co2   1  UNL1       -0.8688
     23 H          -3.4500    2.9304   -1.3196 H       1  UNL1        0.2954
     24 H          -2.0182    2.2922   -0.4076 H       1  UNL1        0.0662
     25 H           1.0506    0.9956    2.4897 H       1  UNL1        0.0749
     26 H           1.7445    2.4246    1.7004 H       1  UNL1        0.0749
     27 H           1.1059    0.4258   -0.9320 H       1  UNL1        0.0622
     28 H           2.7466   -0.9250   -2.1088 H       1  UNL1        0.0618
     29 H           4.8202   -1.5021   -1.0207 H       1  UNL1        0.0618
     30 H           5.2511   -0.7401    1.2056 H       1  UNL1        0.0646
     31 H          -0.0572   -0.9334    1.2728 H       1  UNL1        0.0722
@<TRIPOS>UNITY_ATOM_ATTR
18 1
charge 1
20 1
charge -1
22 1
charge -1
@<TRIPOS>BOND
     1     1     2    2
     2     2     3    1
     3     2     4    1
     4     4     5   ar
     5     4    21   ar
     6     5     6   ar
     7     6     7    1
     8     6    16   ar
     9     7     8    1
    10     8     9    1
    11     9    10   ar
    12     9    14   ar
    13    10    11   ar
    14    11    12   ar
    15    12    13   ar
    16    13    14   ar
    17    14    15    1
    18    16    17   ar
    19    17    18    1
    20    17    21   ar
    21    18    19    2
    22    18    20    1
    23    21    22    1
    24     3    23    1
    25     5    24    1
    26     8    25    1
    27     8    26    1
    28    10    27    1
    29    11    28    1
    30    12    29    1
    31    13    30    1
    32    16    31    1
@<TRIPOS>MOLECULE
../data/bude_mols_rdkit_confs_charged/molecule_46.pdb
 31 32 0 0 0
SMALL
GASTEIGER

@<TRIPOS>ATOM
      1 O           3.9100   -2.7560    0.3850 O.2     1  UNL1       -0.2451
      2 C           4.2340   -1.6160    0.1930 C.2     1  UNL1        0.3365
      3 O           5.5570   -1.2210    0.0140 O.3     1  UNL1       -0.4771
      4 C           3.1950   -0.5200    0.0970 C.ar    1  UNL1        0.0610
      5 C           1.8620   -0.8970    0.0220 C.ar    1  UNL1       -0.0061
      6 C           0.9010    0.0370   -0.1170 C.ar    1  UNL1        0.1282
      7 O          -0.4150   -0.2730   -0.1590 O.3     1  UNL1       -0.4870
      8 C          -1.5180    0.6160   -0.3200 C.3     1  UNL1        0.1173
      9 C          -2.7110   -0.2170    0.0290 C.ar    1  UNL1        0.0248
     10 C          -3.0740   -1.3740   -0.5070 C.ar    1  UNL1       -0.0526
     11 C          -4.2340   -1.9970   -0.0950 C.ar    1  UNL1       -0.0612
     12 C          -5.0440   -1.4490    0.8690 C.ar    1  UNL1       -0.0590
     13 C          -4.6760   -0.2280    1.4370 C.ar    1  UNL1       -0.0261
     14 C          -3.5180    0.3570    1.0030 C.ar    1  UNL1        0.1298
     15 F          -3.1100    1.5240    1.5480 F       1  UNL1       -0.2051
     16 C           1.2540    1.4020   -0.1870 C.ar    1  UNL1        0.0567
     17 C           2.5650    1.7830   -0.1160 C.ar    1  UNL1        0.2698
     18 N           2.9630    3.1730   -0.2430 N.pl3   1  UNL1        0.0791
     19 O           2.2130    4.0730    0.0810 O.2     1  UNL1        0.0414
     20 O           4.2470    3.4500   -0.7000 O.co2   1  UNL1       -0.5761
     21 C           3.5160    0.7900    0.0220 C.ar    1  UNL1       -0.0142
     22 O           4.8710    1.1280    0.0770 O.co2   1  UNL1       -0.8688
     23 H           5.7606   -0.3183   -0.1331 H       1  UNL1        0.2954
     24 H           1.6059   -1.8954    0.0728 H       1  UNL1        0.0662
     25 H          -1.5805    0.9651   -1.3295 H       1  UNL1        0.0749
     26 H          -1.4340    1.4901    0.2914 H       1  UNL1        0.0749
     27 H          -2.4868   -1.8102   -1.2350 H       1  UNL1        0.0622
     28 H          -4.4998   -2.8980   -0.5223 H       1  UNL1        0.0618
     29 H          -5.9070   -1.9299    1.1674 H       1  UNL1        0.0618
     30 H          -5.2592    0.2192    2.1615 H       1  UNL1        0.0646
     31 H           0.5174    2.1171   -0.2925 H       1  UNL1        0.0722
@<TRIPOS>UNITY_ATOM_ATTR
18 1
charge 1
20 1
charge -1
22 1
charge -1
@<TRIPOS>BOND
     1     1     2    2
     2     2     3    1
     3     2     4    1
     4     4     5   ar
     5     4    21   ar
     6     5     6   ar
     7     6     7    1
     8     6    16   ar
     9     7     8    1
    10     8     9    1
    11     9    10   ar
    12     9    14   ar
    13    10    11   ar
    14    11    12   ar
    15    12    13   ar
    16    13    14   ar
    17    14    15    1
    18    16    17   ar
    19    17    18    1
    20    17    21   ar
    21    18    19    2
    22    18    20    1
    23    21    22    1
    24     3    23    1
    25     5    24    1
    26     8    25    1
    27     8    26    1
    28    10    27    1
    29    11    28    1
    30    12    29    1
    31    13    30    1
    32    16    31    1
@<TRIPOS>MOLECULE
../data/bude_mols_rdkit_confs_charged/molecule_46.pdb
 31 32 0 0 0
SMALL
GASTEIGER

@<TRIPOS>ATOM
      1 O           5.1190    1.3880    1.2040 O.2     1  UNL1       -0.2451
      2 C           3.8680    1.4160    1.2230 C.2     1  UNL1        0.3365
      3 O           3.2770    2.4100    1.9900 O.3     1  UNL1       -0.4771
      4 C           3.1060    0.4390    0.4680 C.ar    1  UNL1        0.0610
      5 C           1.7130    0.4670    0.4850 C.ar    1  UNL1       -0.0061
      6 C           0.9820   -0.4550   -0.2290 C.ar    1  UNL1        0.1282
      7 O          -0.3980   -0.4370   -0.2180 O.3     1  UNL1       -0.4870
      8 C          -1.0980    0.5230    0.5220 C.3     1  UNL1        0.1173
      9 C          -2.5670    0.3760    0.4020 C.ar    1  UNL1        0.0248
     10 C          -3.1140   -0.6230   -0.3740 C.ar    1  UNL1       -0.0526
     11 C          -4.4770   -0.7900   -0.5100 C.ar    1  UNL1       -0.0612
     12 C          -5.3600    0.0590    0.1440 C.ar    1  UNL1       -0.0590
     13 C          -4.8280    1.0610    0.9230 C.ar    1  UNL1       -0.0261
     14 C          -3.4510    1.2130    1.0470 C.ar    1  UNL1        0.1298
     15 F          -2.9380    2.1950    1.8090 F       1  UNL1       -0.2051
     16 C           1.6310   -1.4160   -0.9690 C.ar    1  UNL1        0.0567
     17 C           3.0280   -1.4650   -1.0030 C.ar    1  UNL1        0.2698
     18 N           3.6560   -2.4690   -1.7790 N.pl3   1  UNL1        0.0791
     19 O           4.7500   -2.9380   -1.4270 O.2     1  UNL1        0.0414
     20 O           3.0920   -2.9560   -2.9280 O.co2   1  UNL1       -0.5761
     21 C           3.7400   -0.5180   -0.2700 C.ar    1  UNL1       -0.0142
     22 O           5.1440   -0.5930   -0.3240 O.co2   1  UNL1       -0.8688
     23 H           2.3433    2.4729    2.0366 H       1  UNL1        0.2954
     24 H           1.2239    1.1872    1.0392 H       1  UNL1        0.0662
     25 H          -0.8212    1.4951    0.1707 H       1  UNL1        0.0749
     26 H          -0.8422    0.3875    1.5521 H       1  UNL1        0.0749
     27 H          -2.4815   -1.2694   -0.8712 H       1  UNL1        0.0622
     28 H          -4.8429   -1.5517   -1.1023 H       1  UNL1        0.0618
     29 H          -6.3810   -0.0575    0.0491 H       1  UNL1        0.0618
     30 H          -5.4588    1.7079    1.4216 H       1  UNL1        0.0646
     31 H           1.0819   -2.1070   -1.5039 H       1  UNL1        0.0722
@<TRIPOS>UNITY_ATOM_ATTR
18 1
charge 1
20 1
charge -1
22 1
charge -1
@<TRIPOS>BOND
     1     1     2    2
     2     2     3    1
     3     2     4    1
     4     4     5   ar
     5     4    21   ar
     6     5     6   ar
     7     6     7    1
     8     6    16   ar
     9     7     8    1
    10     8     9    1
    11     9    10   ar
    12     9    14   ar
    13    10    11   ar
    14    11    12   ar
    15    12    13   ar
    16    13    14   ar
    17    14    15    1
    18    16    17   ar
    19    17    18    1
    20    17    21   ar
    21    18    19    2
    22    18    20    1
    23    21    22    1
    24     3    23    1
    25     5    24    1
    26     8    25    1
    27     8    26    1
    28    10    27    1
    29    11    28    1
    30    12    29    1
    31    13    30    1
    32    16    31    1
@<TRIPOS>MOLECULE
../data/bude_mols_rdkit_confs_charged/molecule_46.pdb
 31 32 0 0 0
SMALL
GASTEIGER

@<TRIPOS>ATOM
      1 O           2.8740    3.2890   -1.2810 O.2     1  UNL1       -0.2451
      2 C           3.4260    2.3800   -0.7020 C.2     1  UNL1        0.3365
      3 O           4.7450    2.6210   -0.2560 O.3     1  UNL1       -0.4771
      4 C           2.7970    1.0670   -0.4430 C.ar    1  UNL1        0.0610
      5 C           1.4440    0.8620   -0.6940 C.ar    1  UNL1       -0.0061
      6 C           0.8640   -0.3530   -0.3610 C.ar    1  UNL1        0.1282
      7 O          -0.4050   -0.5470   -0.5690 O.3     1  UNL1       -0.4870
      8 C          -1.4290   -1.4890   -0.5730 C.3     1  UNL1        0.1173
      9 C          -2.6620   -0.5620   -0.4900 C.ar    1  UNL1        0.0248
     10 C          -2.7720    0.0850    0.7510 C.ar    1  UNL1       -0.0526
     11 C          -3.8820    0.8650    1.0190 C.ar    1  UNL1       -0.0612
     12 C          -4.8220    0.9790    0.0470 C.ar    1  UNL1       -0.0590
     13 C          -4.7450    0.3610   -1.1860 C.ar    1  UNL1       -0.0261
     14 C          -3.6270   -0.4110   -1.3980 C.ar    1  UNL1        0.1298
     15 F          -3.4950   -0.9930   -2.6170 F       1  UNL1       -0.2051
     16 C           1.6470   -1.3840    0.2240 C.ar    1  UNL1        0.0567
     17 C           2.9910   -1.1960    0.4700 C.ar    1  UNL1        0.2698
     18 N           3.7180   -2.2230    1.1420 N.pl3   1  UNL1        0.0791
     19 O           3.2390   -3.3950    1.2620 O.2     1  UNL1        0.0414
     20 O           4.9150   -1.9730    1.7300 O.co2   1  UNL1       -0.5761
     21 C           3.5420    0.0400    0.1250 C.ar    1  UNL1       -0.0142
     22 O           4.9090    0.1670    0.3830 O.co2   1  UNL1       -0.8688
     23 H           5.2162    1.9500    0.1975 H       1  UNL1        0.2954
     24 H           0.8762    1.6084   -1.1247 H       1  UNL1        0.0662
     25 H          -1.3682   -2.1426    0.2720 H       1  UNL1        0.0749
     26 H          -1.4237   -2.1509   -1.4137 H       1  UNL1        0.0749
     27 H          -2.0288   -0.0209    1.4592 H       1  UNL1        0.0622
     28 H          -3.9917    1.3437    1.9266 H       1  UNL1        0.0618
     29 H          -5.6484    1.5657    0.2417 H       1  UNL1        0.0618
     30 H          -5.4796    0.4716   -1.9023 H       1  UNL1        0.0646
     31 H           1.2050   -2.2841    0.4677 H       1  UNL1        0.0722
@<TRIPOS>UNITY_ATOM_ATTR
18 1
charge 1
20 1
charge -1
22 1
charge -1
@<TRIPOS>BOND
     1     1     2    2
     2     2     3    1
     3     2     4    1
     4     4     5   ar
     5     4    21   ar
     6     5     6   ar
     7     6     7    1
     8     6    16   ar
     9     7     8    1
    10     8     9    1
    11     9    10   ar
    12     9    14   ar
    13    10    11   ar
    14    11    12   ar
    15    12    13   ar
    16    13    14   ar
    17    14    15    1
    18    16    17   ar
    19    17    18    1
    20    17    21   ar
    21    18    19    2
    22    18    20    1
    23    21    22    1
    24     3    23    1
    25     5    24    1
    26     8    25    1
    27     8    26    1
    28    10    27    1
    29    11    28    1
    30    12    29    1
    31    13    30    1
    32    16    31    1
@<TRIPOS>MOLECULE
../data/bude_mols_rdkit_confs_charged/molecule_46.pdb
 31 32 0 0 0
SMALL
GASTEIGER

@<TRIPOS>ATOM
      1 O           4.4090   -1.8350    1.4580 O.2     1  UNL1       -0.2451
      2 C           4.3540   -0.7040    0.9340 C.2     1  UNL1        0.3365
      3 O           5.4250    0.1510    1.0240 O.3     1  UNL1       -0.4771
      4 C           3.1600   -0.2650    0.2170 C.ar    1  UNL1        0.0610
      5 C           2.0450   -1.0540    0.1930 C.ar    1  UNL1       -0.0061
      6 C           0.8460   -0.6960   -0.4310 C.ar    1  UNL1        0.1282
      7 O          -0.1730   -1.5290   -0.3880 O.3     1  UNL1       -0.4870
      8 C          -1.4220   -1.8400   -0.6880 C.3     1  UNL1        0.1173
      9 C          -2.4580   -0.8940   -0.1660 C.ar    1  UNL1        0.0248
     10 C          -3.4000   -0.3940   -1.0430 C.ar    1  UNL1       -0.0526
     11 C          -4.4270    0.4060   -0.5730 C.ar    1  UNL1       -0.0612
     12 C          -4.4530    0.6680    0.7900 C.ar    1  UNL1       -0.0590
     13 C          -3.5060    0.1660    1.6700 C.ar    1  UNL1       -0.0261
     14 C          -2.5020   -0.6250    1.1750 C.ar    1  UNL1        0.1298
     15 F          -1.5130   -1.1480    1.9870 F       1  UNL1       -0.2051
     16 C           0.8530    0.5420   -1.0510 C.ar    1  UNL1        0.0567
     17 C           1.9490    1.3590   -1.0540 C.ar    1  UNL1        0.2698
     18 N           1.9640    2.6370   -1.6720 N.pl3   1  UNL1        0.0791
     19 O           2.9670    3.1140   -2.1710 O.2     1  UNL1        0.0414
     20 O           0.7860    3.3540   -1.6940 O.co2   1  UNL1       -0.5761
     21 C           3.1250    0.9570   -0.4120 C.ar    1  UNL1       -0.0142
     22 O           4.2470    1.7660   -0.3990 O.co2   1  UNL1       -0.8688
     23 H           5.3813    0.9998    0.6296 H       1  UNL1        0.2954
     24 H           2.0904   -1.9709    0.6645 H       1  UNL1        0.0662
     25 H          -1.6272   -2.8101   -0.2859 H       1  UNL1        0.0749
     26 H          -1.4906   -1.7959   -1.7549 H       1  UNL1        0.0749
     27 H          -3.3383   -0.6168   -2.0488 H       1  UNL1        0.0622
     28 H          -5.1429    0.7913   -1.2087 H       1  UNL1        0.0618
     29 H          -5.2095    1.2618    1.1645 H       1  UNL1        0.0618
     30 H          -3.5562    0.3837    2.6775 H       1  UNL1        0.0646
     31 H          -0.0036    0.8608   -1.5301 H       1  UNL1        0.0722
@<TRIPOS>UNITY_ATOM_ATTR
18 1
charge 1
20 1
charge -1
22 1
charge -1
@<TRIPOS>BOND
     1     1     2    2
     2     2     3    1
     3     2     4    1
     4     4     5   ar
     5     4    21   ar
     6     5     6   ar
     7     6     7    1
     8     6    16   ar
     9     7     8    1
    10     8     9    1
    11     9    10   ar
    12     9    14   ar
    13    10    11   ar
    14    11    12   ar
    15    12    13   ar
    16    13    14   ar
    17    14    15    1
    18    16    17   ar
    19    17    18    1
    20    17    21   ar
    21    18    19    2
    22    18    20    1
    23    21    22    1
    24     3    23    1
    25     5    24    1
    26     8    25    1
    27     8    26    1
    28    10    27    1
    29    11    28    1
    30    12    29    1
    31    13    30    1
    32    16    31    1
@<TRIPOS>MOLECULE
../data/bude_mols_rdkit_confs_charged/molecule_46.pdb
 31 32 0 0 0
SMALL
GASTEIGER

@<TRIPOS>ATOM
      1 O          -2.8370    2.8670   -1.4440 O.2     1  UNL1       -0.2451
      2 C          -3.5760    1.9340   -1.0200 C.2     1  UNL1        0.3365
      3 O          -4.9530    2.1300   -1.1430 O.3     1  UNL1       -0.4771
      4 C          -2.9780    0.7480   -0.4440 C.ar    1  UNL1        0.0610
      5 C          -1.6040    0.6690   -0.3670 C.ar    1  UNL1       -0.0061
      6 C          -0.9560   -0.4460    0.1790 C.ar    1  UNL1        0.1282
      7 O           0.4240   -0.5020    0.2410 O.3     1  UNL1       -0.4870
      8 C           1.2510    0.5130   -0.2740 C.3     1  UNL1        0.1173
      9 C           2.6950    0.2390   -0.0560 C.ar    1  UNL1        0.0248
     10 C           3.5340    1.2280    0.4810 C.ar    1  UNL1       -0.0526
     11 C           4.8840    1.0150    0.6150 C.ar    1  UNL1       -0.0612
     12 C           5.4400   -0.1730    0.2260 C.ar    1  UNL1       -0.0590
     13 C           4.6210   -1.1710   -0.3130 C.ar    1  UNL1       -0.0261
     14 C           3.2730   -0.9470   -0.4410 C.ar    1  UNL1        0.1298
     15 F           2.5030   -1.9720   -0.9540 F       1  UNL1       -0.2051
     16 C          -1.7590   -1.4620    0.6360 C.ar    1  UNL1        0.0567
     17 C          -3.1390   -1.4160    0.5720 C.ar    1  UNL1        0.2698
     18 N          -3.9580   -2.4740    1.0270 N.pl3   1  UNL1        0.0791
     19 O          -5.0720   -2.2460    1.4970 O.2     1  UNL1        0.0414
     20 O          -3.4870   -3.7400    0.9320 O.co2   1  UNL1       -0.5761
     21 C          -3.7590   -0.3100    0.0330 C.ar    1  UNL1       -0.0142
     22 O          -5.1440   -0.1830   -0.0630 O.co2   1  UNL1       -0.8688
     23 H          -5.5485    1.4708   -0.8450 H       1  UNL1        0.2954
     24 H          -1.0363    1.4543   -0.7220 H       1  UNL1        0.0662
     25 H           1.0009    1.4357    0.2066 H       1  UNL1        0.0749
     26 H           1.0860    0.5608   -1.3301 H       1  UNL1        0.0749
     27 H           3.1299    2.1294    0.7798 H       1  UNL1        0.0622
     28 H           5.4830    1.7558    1.0117 H       1  UNL1        0.0618
     29 H           6.4545   -0.3315    0.3293 H       1  UNL1        0.0618
     30 H           5.0282   -2.0707   -0.6127 H       1  UNL1        0.0646
     31 H          -1.3121   -2.2972    1.0455 H       1  UNL1        0.0722
@<TRIPOS>UNITY_ATOM_ATTR
18 1
charge 1
20 1
charge -1
22 1
charge -1
@<TRIPOS>BOND
     1     1     2    2
     2     2     3    1
     3     2     4    1
     4     4     5   ar
     5     4    21   ar
     6     5     6   ar
     7     6     7    1
     8     6    16   ar
     9     7     8    1
    10     8     9    1
    11     9    10   ar
    12     9    14   ar
    13    10    11   ar
    14    11    12   ar
    15    12    13   ar
    16    13    14   ar
    17    14    15    1
    18    16    17   ar
    19    17    18    1
    20    17    21   ar
    21    18    19    2
    22    18    20    1
    23    21    22    1
    24     3    23    1
    25     5    24    1
    26     8    25    1
    27     8    26    1
    28    10    27    1
    29    11    28    1
    30    12    29    1
    31    13    30    1
    32    16    31    1
@<TRIPOS>MOLECULE
../data/bude_mols_rdkit_confs_charged/molecule_46.pdb
 31 32 0 0 0
SMALL
GASTEIGER

@<TRIPOS>ATOM
      1 O          -3.2850   -2.7840   -1.1770 O.2     1  UNL1       -0.2451
      2 C          -3.8450   -1.7640   -0.7390 C.2     1  UNL1        0.3365
      3 O          -5.2330   -1.7360   -0.7370 O.3     1  UNL1       -0.4771
      4 C          -3.0530   -0.6260   -0.2410 C.ar    1  UNL1        0.0610
      5 C          -1.6760   -0.6810   -0.2520 C.ar    1  UNL1       -0.0061
      6 C          -0.9390    0.4060    0.2260 C.ar    1  UNL1        0.1282
      7 O           0.4420    0.3900    0.2310 O.3     1  UNL1       -0.4870
      8 C           1.2100   -0.6930   -0.2320 C.3     1  UNL1        0.1173
      9 C           2.6590   -0.4200   -0.0980 C.ar    1  UNL1        0.0248
     10 C           3.1490    0.7570    0.4220 C.ar    1  UNL1       -0.0526
     11 C           4.4950    0.9900    0.5400 C.ar    1  UNL1       -0.0612
     12 C           5.3940    0.0200    0.1270 C.ar    1  UNL1       -0.0590
     13 C           4.9350   -1.1580   -0.3930 C.ar    1  UNL1       -0.0261
     14 C           3.5760   -1.3640   -0.4990 C.ar    1  UNL1        0.1298
     15 F           3.1910   -2.5620   -1.0290 F       1  UNL1       -0.2051
     16 C          -1.5790    1.5280    0.7060 C.ar    1  UNL1        0.0567
     17 C          -2.9660    1.5940    0.7220 C.ar    1  UNL1        0.2698
     18 N          -3.5980    2.7650    1.2240 N.pl3   1  UNL1        0.0791
     19 O          -4.7050    2.7090    1.7990 O.2     1  UNL1        0.0414
     20 O          -2.9550    3.9720    1.0600 O.co2   1  UNL1       -0.5761
     21 C          -3.6680    0.5010    0.2420 C.ar    1  UNL1       -0.0142
     22 O          -5.0710    0.5510    0.2510 O.co2   1  UNL1       -0.8688
     23 H          -5.6859   -0.9822   -0.4136 H       1  UNL1        0.2954
     24 H          -1.1924   -1.5191   -0.6107 H       1  UNL1        0.0662
     25 H           0.9818   -0.8669   -1.2628 H       1  UNL1        0.0749
     26 H           0.9720   -1.5531    0.3583 H       1  UNL1        0.0749
     27 H           2.4849    1.4838    0.7314 H       1  UNL1        0.0622
     28 H           4.8359    1.8811    0.9334 H       1  UNL1        0.0618
     29 H           6.4089    0.1866    0.2118 H       1  UNL1        0.0618
     30 H           5.5986   -1.8851   -0.7028 H       1  UNL1        0.0646
     31 H          -1.0239    2.3245    1.0559 H       1  UNL1        0.0722
@<TRIPOS>UNITY_ATOM_ATTR
18 1
charge 1
20 1
charge -1
22 1
charge -1
@<TRIPOS>BOND
     1     1     2    2
     2     2     3    1
     3     2     4    1
     4     4     5   ar
     5     4    21   ar
     6     5     6   ar
     7     6     7    1
     8     6    16   ar
     9     7     8    1
    10     8     9    1
    11     9    10   ar
    12     9    14   ar
    13    10    11   ar
    14    11    12   ar
    15    12    13   ar
    16    13    14   ar
    17    14    15    1
    18    16    17   ar
    19    17    18    1
    20    17    21   ar
    21    18    19    2
    22    18    20    1
    23    21    22    1
    24     3    23    1
    25     5    24    1
    26     8    25    1
    27     8    26    1
    28    10    27    1
    29    11    28    1
    30    12    29    1
    31    13    30    1
    32    16    31    1
@<TRIPOS>MOLECULE
../data/bude_mols_rdkit_confs_charged/molecule_46.pdb
 31 32 0 0 0
SMALL
GASTEIGER

@<TRIPOS>ATOM
      1 O           3.2130   -2.8280    0.4760 O.2     1  UNL1       -0.2451
      2 C           3.7660   -1.6990    0.4470 C.2     1  UNL1        0.3365
      3 O           5.1370   -1.6530    0.5530 O.3     1  UNL1       -0.4771
      4 C           2.9790   -0.4650    0.3040 C.ar    1  UNL1        0.0610
      5 C           1.6090   -0.5280    0.1980 C.ar    1  UNL1       -0.0061
      6 C           0.8420    0.6160    0.0620 C.ar    1  UNL1        0.1282
      7 O          -0.5540    0.5700   -0.0470 O.3     1  UNL1       -0.4870
      8 C          -1.1560   -0.7070   -0.0120 C.3     1  UNL1        0.1173
      9 C          -2.6250   -0.6110   -0.1340 C.ar    1  UNL1        0.0248
     10 C          -3.2040    0.6490   -0.2600 C.ar    1  UNL1       -0.0526
     11 C          -4.5720    0.7590   -0.3730 C.ar    1  UNL1       -0.0612
     12 C          -5.3430   -0.3770   -0.3590 C.ar    1  UNL1       -0.0590
     13 C          -4.7490   -1.6290   -0.2320 C.ar    1  UNL1       -0.0261
     14 C          -3.3800   -1.7570   -0.1180 C.ar    1  UNL1        0.1298
     15 F          -2.8520   -2.9970    0.0030 F       1  UNL1       -0.2051
     16 C           1.4800    1.8380    0.0330 C.ar    1  UNL1        0.0567
     17 C           2.8630    1.9000    0.1410 C.ar    1  UNL1        0.2698
     18 N           3.5070    3.1550    0.1100 N.pl3   1  UNL1        0.0791
     19 O           2.9880    4.0980   -0.4850 O.2     1  UNL1        0.0414
     20 O           4.6990    3.3200    0.7390 O.co2   1  UNL1       -0.5761
     21 C           3.6340    0.7440    0.2780 C.ar    1  UNL1       -0.0142
     22 O           5.0040    0.7550    0.3870 O.co2   1  UNL1       -0.8688
     23 H           5.5809   -0.8280    0.5350 H       1  UNL1        0.2954
     24 H           1.1429   -1.4485    0.2204 H       1  UNL1        0.0662
     25 H          -0.9135   -1.1814    0.9159 H       1  UNL1        0.0749
     26 H          -0.7850   -1.2782   -0.8373 H       1  UNL1        0.0749
     27 H          -2.6122    1.4944   -0.2686 H       1  UNL1        0.0622
     28 H          -5.0137    1.6869   -0.4674 H       1  UNL1        0.0618
     29 H          -6.3688   -0.3019   -0.4431 H       1  UNL1        0.0618
     30 H          -5.3412   -2.4741   -0.2230 H       1  UNL1        0.0646
     31 H           0.9303    2.7055   -0.0688 H       1  UNL1        0.0722
@<TRIPOS>UNITY_ATOM_ATTR
18 1
charge 1
20 1
charge -1
22 1
charge -1
@<TRIPOS>BOND
     1     1     2    2
     2     2     3    1
     3     2     4    1
     4     4     5   ar
     5     4    21   ar
     6     5     6   ar
     7     6     7    1
     8     6    16   ar
     9     7     8    1
    10     8     9    1
    11     9    10   ar
    12     9    14   ar
    13    10    11   ar
    14    11    12   ar
    15    12    13   ar
    16    13    14   ar
    17    14    15    1
    18    16    17   ar
    19    17    18    1
    20    17    21   ar
    21    18    19    2
    22    18    20    1
    23    21    22    1
    24     3    23    1
    25     5    24    1
    26     8    25    1
    27     8    26    1
    28    10    27    1
    29    11    28    1
    30    12    29    1
    31    13    30    1
    32    16    31    1
@<TRIPOS>MOLECULE
../data/bude_mols_rdkit_confs_charged/molecule_46.pdb
 31 32 0 0 0
SMALL
GASTEIGER

@<TRIPOS>ATOM
      1 O           3.9020   -2.8210   -1.3200 O.2     1  UNL1       -0.2451
      2 C           4.2370   -1.7370   -0.7860 C.2     1  UNL1        0.3365
      3 O           5.6030   -1.4930   -0.6270 O.3     1  UNL1       -0.4771
      4 C           3.2580   -0.7630   -0.3440 C.ar    1  UNL1        0.0610
      5 C           1.9270   -1.0360   -0.5160 C.ar    1  UNL1       -0.0061
      6 C           0.9720   -0.1270   -0.1040 C.ar    1  UNL1        0.1282
      7 O          -0.3970   -0.4180   -0.2870 O.3     1  UNL1       -0.4870
      8 C          -1.3170    0.5520    0.1560 C.3     1  UNL1        0.1173
      9 C          -2.7010    0.0840   -0.1130 C.ar    1  UNL1        0.0248
     10 C          -2.9460   -1.1480   -0.7170 C.ar    1  UNL1       -0.0526
     11 C          -4.2470   -1.5550   -0.9540 C.ar    1  UNL1       -0.0612
     12 C          -5.3390   -0.7890   -0.6160 C.ar    1  UNL1       -0.0590
     13 C          -5.0950    0.4460   -0.0100 C.ar    1  UNL1       -0.0261
     14 C          -3.7960    0.8440    0.2220 C.ar    1  UNL1        0.1298
     15 F          -3.5910    2.0640    0.8200 F       1  UNL1       -0.2051
     16 C           1.3640    1.0430    0.4730 C.ar    1  UNL1        0.0567
     17 C           2.6940    1.3510    0.6620 C.ar    1  UNL1        0.2698
     18 N           3.0820    2.5750    1.2670 N.pl3   1  UNL1        0.0791
     19 O           4.1100    2.6260    1.9450 O.2     1  UNL1        0.0414
     20 O           2.3120    3.6790    1.0890 O.co2   1  UNL1       -0.5761
     21 C           3.6340    0.4230    0.2410 C.ar    1  UNL1       -0.0142
     22 O           4.9830    0.7220    0.4270 O.co2   1  UNL1       -0.8688
     23 H           5.8934   -0.6944   -0.2323 H       1  UNL1        0.2954
     24 H           1.6366   -1.9237   -0.9549 H       1  UNL1        0.0662
     25 H          -1.1441    1.4709   -0.3643 H       1  UNL1        0.0749
     26 H          -1.1919    0.7072    1.2073 H       1  UNL1        0.0749
     27 H          -2.1574   -1.7563   -0.9873 H       1  UNL1        0.0622
     28 H          -4.4049   -2.4708   -1.4028 H       1  UNL1        0.0618
     29 H          -6.3005   -1.1140   -0.8028 H       1  UNL1        0.0618
     30 H          -5.8818    1.0559    0.2620 H       1  UNL1        0.0646
     31 H           0.6449    1.7178    0.7772 H       1  UNL1        0.0722
@<TRIPOS>UNITY_ATOM_ATTR
18 1
charge 1
20 1
charge -1
22 1
charge -1
@<TRIPOS>BOND
     1     1     2    2
     2     2     3    1
     3     2     4    1
     4     4     5   ar
     5     4    21   ar
     6     5     6   ar
     7     6     7    1
     8     6    16   ar
     9     7     8    1
    10     8     9    1
    11     9    10   ar
    12     9    14   ar
    13    10    11   ar
    14    11    12   ar
    15    12    13   ar
    16    13    14   ar
    17    14    15    1
    18    16    17   ar
    19    17    18    1
    20    17    21   ar
    21    18    19    2
    22    18    20    1
    23    21    22    1
    24     3    23    1
    25     5    24    1
    26     8    25    1
    27     8    26    1
    28    10    27    1
    29    11    28    1
    30    12    29    1
    31    13    30    1
    32    16    31    1
@<TRIPOS>MOLECULE
../data/bude_mols_rdkit_confs_charged/molecule_46.pdb
 31 32 0 0 0
SMALL
GASTEIGER

@<TRIPOS>ATOM
      1 O          -3.8270   -3.0370    0.3520 O.2     1  UNL1       -0.2451
      2 C          -4.1980   -1.8470    0.2960 C.2     1  UNL1        0.3365
      3 O          -5.5590   -1.5760    0.3440 O.3     1  UNL1       -0.4771
      4 C          -3.2160   -0.7890    0.1840 C.ar    1  UNL1        0.0610
      5 C          -1.8730   -1.1030    0.1400 C.ar    1  UNL1       -0.0061
      6 C          -0.9430   -0.0960    0.0340 C.ar    1  UNL1        0.1282
      7 O           0.3900   -0.4240   -0.0090 O.3     1  UNL1       -0.4870
      8 C           1.3370    0.6080   -0.1180 C.3     1  UNL1        0.1173
      9 C           2.7380    0.0370   -0.1490 C.ar    1  UNL1        0.0248
     10 C           2.9420   -1.3140   -0.0750 C.ar    1  UNL1       -0.0526
     11 C           4.2050   -1.8390   -0.1030 C.ar    1  UNL1       -0.0612
     12 C           5.2950   -0.9990   -0.2070 C.ar    1  UNL1       -0.0590
     13 C           5.0770    0.3740   -0.2810 C.ar    1  UNL1       -0.0261
     14 C           3.8060    0.8870   -0.2520 C.ar    1  UNL1        0.1298
     15 F           3.6350    2.2330   -0.3280 F       1  UNL1       -0.2051
     16 C          -1.3780    1.2020   -0.0260 C.ar    1  UNL1        0.0567
     17 C          -2.7120    1.5510    0.0150 C.ar    1  UNL1        0.2698
     18 N          -3.1040    2.9140   -0.0500 N.pl3   1  UNL1        0.0791
     19 O          -2.3640    3.7310   -0.6390 O.2     1  UNL1        0.0414
     20 O          -4.2600    3.3490    0.5080 O.co2   1  UNL1       -0.5761
     21 C          -3.6400    0.5430    0.1220 C.ar    1  UNL1       -0.0142
     22 O          -5.0010    0.8100    0.1700 O.co2   1  UNL1       -0.8688
     23 H          -5.8620   -0.6903    0.3036 H       1  UNL1        0.2954
     24 H          -1.5685   -2.0880    0.1864 H       1  UNL1        0.0662
     25 H           1.2421    1.2638    0.7221 H       1  UNL1        0.0749
     26 H           1.1612    1.1460   -1.0261 H       1  UNL1        0.0749
     27 H           2.1305   -1.9467    0.0031 H       1  UNL1        0.0622
     28 H           4.3423   -2.8603   -0.0465 H       1  UNL1        0.0618
     29 H           6.2533   -1.3813   -0.2295 H       1  UNL1        0.0618
     30 H           5.8828    1.0141   -0.3587 H       1  UNL1        0.0646
     31 H          -0.6750    1.9534   -0.1056 H       1  UNL1        0.0722
@<TRIPOS>UNITY_ATOM_ATTR
18 1
charge 1
20 1
charge -1
22 1
charge -1
@<TRIPOS>BOND
     1     1     2    2
     2     2     3    1
     3     2     4    1
     4     4     5   ar
     5     4    21   ar
     6     5     6   ar
     7     6     7    1
     8     6    16   ar
     9     7     8    1
    10     8     9    1
    11     9    10   ar
    12     9    14   ar
    13    10    11   ar
    14    11    12   ar
    15    12    13   ar
    16    13    14   ar
    17    14    15    1
    18    16    17   ar
    19    17    18    1
    20    17    21   ar
    21    18    19    2
    22    18    20    1
    23    21    22    1
    24     3    23    1
    25     5    24    1
    26     8    25    1
    27     8    26    1
    28    10    27    1
    29    11    28    1
    30    12    29    1
    31    13    30    1
    32    16    31    1
@<TRIPOS>MOLECULE
../data/bude_mols_rdkit_confs_charged/molecule_46.pdb
 31 32 0 0 0
SMALL
GASTEIGER

@<TRIPOS>ATOM
      1 O           5.1710    1.1920    1.0510 O.2     1  UNL1       -0.2451
      2 C           4.2200    1.6730    0.3760 C.2     1  UNL1        0.3365
      3 O           4.3800    2.9230   -0.1450 O.3     1  UNL1       -0.4771
      4 C           3.0170    0.8640    0.1980 C.ar    1  UNL1        0.0610
      5 C           1.9420    1.3290   -0.5240 C.ar    1  UNL1       -0.0061
      6 C           0.7830    0.5970   -0.7170 C.ar    1  UNL1        0.1282
      7 O          -0.2790    1.0900   -1.4510 O.3     1  UNL1       -0.4870
      8 C          -1.4380    0.3680   -1.6140 C.3     1  UNL1        0.1173
      9 C          -2.2400    0.0930   -0.4180 C.ar    1  UNL1        0.0248
     10 C          -1.9910    0.5580    0.8520 C.ar    1  UNL1       -0.0526
     11 C          -2.8440    0.2600    1.9090 C.ar    1  UNL1       -0.0612
     12 C          -3.9720   -0.5070    1.7440 C.ar    1  UNL1       -0.0590
     13 C          -4.2350   -0.9800    0.4770 C.ar    1  UNL1       -0.0261
     14 C          -3.3930   -0.6880   -0.5700 C.ar    1  UNL1        0.1298
     15 F          -3.6910   -1.1690   -1.7750 F       1  UNL1       -0.2051
     16 C           0.7000   -0.6540   -0.1640 C.ar    1  UNL1        0.0567
     17 C           1.7600   -1.1670    0.5740 C.ar    1  UNL1        0.2698
     18 N           1.6460   -2.4640    1.1350 N.pl3   1  UNL1        0.0791
     19 O           0.5300   -2.9180    1.4220 O.2     1  UNL1        0.0414
     20 O           2.7610   -3.2140    1.3610 O.co2   1  UNL1       -0.5761
     21 C           2.9120   -0.3980    0.7470 C.ar    1  UNL1       -0.0142
     22 O           3.9810   -0.8890    1.4790 O.co2   1  UNL1       -0.8688
     23 H           3.6937    3.3108   -0.6515 H       1  UNL1        0.2954
     24 H           2.0027    2.2704   -0.9425 H       1  UNL1        0.0662
     25 H          -1.1702   -0.5747   -2.0436 H       1  UNL1        0.0749
     26 H          -2.0617    0.9889   -2.2226 H       1  UNL1        0.0749
     27 H          -1.1555    1.1389    1.0238 H       1  UNL1        0.0622
     28 H          -2.6226    0.6268    2.8479 H       1  UNL1        0.0618
     29 H          -4.5970   -0.7202    2.5371 H       1  UNL1        0.0618
     30 H          -5.0728   -1.5596    0.3121 H       1  UNL1        0.0646
     31 H          -0.1540   -1.2181   -0.2962 H       1  UNL1        0.0722
@<TRIPOS>UNITY_ATOM_ATTR
18 1
charge 1
20 1
charge -1
22 1
charge -1
@<TRIPOS>BOND
     1     1     2    2
     2     2     3    1
     3     2     4    1
     4     4     5   ar
     5     4    21   ar
     6     5     6   ar
     7     6     7    1
     8     6    16   ar
     9     7     8    1
    10     8     9    1
    11     9    10   ar
    12     9    14   ar
    13    10    11   ar
    14    11    12   ar
    15    12    13   ar
    16    13    14   ar
    17    14    15    1
    18    16    17   ar
    19    17    18    1
    20    17    21   ar
    21    18    19    2
    22    18    20    1
    23    21    22    1
    24     3    23    1
    25     5    24    1
    26     8    25    1
    27     8    26    1
    28    10    27    1
    29    11    28    1
    30    12    29    1
    31    13    30    1
    32    16    31    1
@<TRIPOS>MOLECULE
../data/bude_mols_rdkit_confs_charged/molecule_46.pdb
 31 32 0 0 0
SMALL
GASTEIGER

@<TRIPOS>ATOM
      1 O          -2.1110    0.7220    3.5600 O.2     1  UNL1       -0.2451
      2 C          -2.9830    0.5160    2.7120 C.2     1  UNL1        0.3365
      3 O          -4.3130    0.5110    3.1240 O.3     1  UNL1       -0.4771
      4 C          -2.6270    0.2850    1.2970 C.ar    1  UNL1        0.0610
      5 C          -1.3150    0.2580    0.9110 C.ar    1  UNL1       -0.0061
      6 C          -0.9470    0.0090   -0.4350 C.ar    1  UNL1        0.1282
      7 O           0.3070   -0.0150   -0.7670 O.3     1  UNL1       -0.4870
      8 C           1.3660   -0.1450   -1.5670 C.3     1  UNL1        0.1173
      9 C           2.6500    0.0380   -0.7770 C.ar    1  UNL1        0.0248
     10 C           3.6200    0.9210   -1.1380 C.ar    1  UNL1       -0.0526
     11 C           4.8400    0.9640   -0.4320 C.ar    1  UNL1       -0.0612
     12 C           5.0480    0.1160    0.6180 C.ar    1  UNL1       -0.0590
     13 C           4.0630   -0.7860    0.9920 C.ar    1  UNL1       -0.0261
     14 C           2.9040   -0.7960    0.2870 C.ar    1  UNL1        0.1298
     15 F           1.9240   -1.6490    0.6870 F       1  UNL1       -0.2051
     16 C          -1.9850   -0.2010   -1.3530 C.ar    1  UNL1        0.0567
     17 C          -3.3120   -0.1770   -0.9950 C.ar    1  UNL1        0.2698
     18 N          -4.3460   -0.4070   -1.9480 N.pl3   1  UNL1        0.0791
     19 O          -5.3800   -1.0070   -1.5890 O.2     1  UNL1        0.0414
     20 O          -4.2540   -0.0120   -3.2490 O.co2   1  UNL1       -0.5761
     21 C          -3.5760    0.0680    0.3300 C.ar    1  UNL1       -0.0142
     22 O          -4.9150    0.0960    0.7160 O.co2   1  UNL1       -0.8688
     23 H          -4.9958    0.3571    2.5011 H       1  UNL1        0.2954
     24 H          -0.5778    0.4223    1.6143 H       1  UNL1        0.0662
     25 H           1.3181    0.5946   -2.3387 H       1  UNL1        0.0749
     26 H           1.3589   -1.1248   -1.9968 H       1  UNL1        0.0749
     27 H           3.4624    1.5618   -1.9315 H       1  UNL1        0.0622
     28 H           5.5740    1.6348   -0.7082 H       1  UNL1        0.0618
     29 H           5.9408    0.1464    1.1348 H       1  UNL1        0.0618
     30 H           4.2077   -1.4313    1.7842 H       1  UNL1        0.0646
     31 H          -1.7428   -0.3813   -2.3398 H       1  UNL1        0.0722
@<TRIPOS>UNITY_ATOM_ATTR
18 1
charge 1
20 1
charge -1
22 1
charge -1
@<TRIPOS>BOND
     1     1     2    2
     2     2     3    1
     3     2     4    1
     4     4     5   ar
     5     4    21   ar
     6     5     6   ar
     7     6     7    1
     8     6    16   ar
     9     7     8    1
    10     8     9    1
    11     9    10   ar
    12     9    14   ar
    13    10    11   ar
    14    11    12   ar
    15    12    13   ar
    16    13    14   ar
    17    14    15    1
    18    16    17   ar
    19    17    18    1
    20    17    21   ar
    21    18    19    2
    22    18    20    1
    23    21    22    1
    24     3    23    1
    25     5    24    1
    26     8    25    1
    27     8    26    1
    28    10    27    1
    29    11    28    1
    30    12    29    1
    31    13    30    1
    32    16    31    1
@<TRIPOS>MOLECULE
../data/bude_mols_rdkit_confs_charged/molecule_46.pdb
 31 32 0 0 0
SMALL
GASTEIGER

@<TRIPOS>ATOM
      1 O           3.6560    3.3120   -0.7010 O.2     1  UNL1       -0.2451
      2 C           4.1260    2.1640   -0.5070 C.2     1  UNL1        0.3365
      3 O           5.5000    2.0240   -0.4620 O.3     1  UNL1       -0.4771
      4 C           3.2060    1.0630   -0.3410 C.ar    1  UNL1        0.0610
      5 C           1.8170    1.2620   -0.3900 C.ar    1  UNL1       -0.0061
      6 C           0.9340    0.2260   -0.2370 C.ar    1  UNL1        0.1282
      7 O          -0.4230    0.4830   -0.2880 O.3     1  UNL1       -0.4870
      8 C          -1.3010   -0.6320   -0.0970 C.3     1  UNL1        0.1173
      9 C          -2.7190   -0.2490   -0.1870 C.ar    1  UNL1        0.0248
     10 C          -3.5860   -0.9850   -1.0220 C.ar    1  UNL1       -0.0526
     11 C          -4.9180   -0.6330   -1.0460 C.ar    1  UNL1       -0.0612
     12 C          -5.4130    0.4090   -0.2770 C.ar    1  UNL1       -0.0590
     13 C          -4.5460    1.1390    0.5550 C.ar    1  UNL1       -0.0261
     14 C          -3.2040    0.7880    0.5740 C.ar    1  UNL1        0.1298
     15 F          -2.4060    1.5280    1.4140 F       1  UNL1       -0.2051
     16 C           1.4160   -1.0550   -0.0340 C.ar    1  UNL1        0.0567
     17 C           2.7640   -1.3060    0.0240 C.ar    1  UNL1        0.2698
     18 N           3.3070   -2.6320    0.2170 N.pl3   1  UNL1        0.0791
     19 O           2.5810   -3.6000   -0.1720 O.2     1  UNL1        0.0414
     20 O           4.5270   -2.8510    0.7970 O.co2   1  UNL1       -0.5761
     21 C           3.6330   -0.2530   -0.1290 C.ar    1  UNL1       -0.0142
     22 O           5.0310   -0.4860   -0.0660 O.co2   1  UNL1       -0.8688
     23 H           5.8805    1.1798   -0.3188 H       1  UNL1        0.2954
     24 H           1.4514    2.2145   -0.5455 H       1  UNL1        0.0662
     25 H          -1.1188   -1.0515    0.8703 H       1  UNL1        0.0749
     26 H          -1.1037   -1.3405   -0.8742 H       1  UNL1        0.0749
     27 H          -3.2327   -1.7647   -1.5983 H       1  UNL1        0.0622
     28 H          -5.5652   -1.1597   -1.6533 H       1  UNL1        0.0618
     29 H          -6.4161    0.6484   -0.3152 H       1  UNL1        0.0618
     30 H          -4.8986    1.9154    1.1362 H       1  UNL1        0.0646
     31 H           0.7500   -1.8356    0.0758 H       1  UNL1        0.0722
@<TRIPOS>UNITY_ATOM_ATTR
18 1
charge 1
20 1
charge -1
22 1
charge -1
@<TRIPOS>BOND
     1     1     2    2
     2     2     3    1
     3     2     4    1
     4     4     5   ar
     5     4    21   ar
     6     5     6   ar
     7     6     7    1
     8     6    16   ar
     9     7     8    1
    10     8     9    1
    11     9    10   ar
    12     9    14   ar
    13    10    11   ar
    14    11    12   ar
    15    12    13   ar
    16    13    14   ar
    17    14    15    1
    18    16    17   ar
    19    17    18    1
    20    17    21   ar
    21    18    19    2
    22    18    20    1
    23    21    22    1
    24     3    23    1
    25     5    24    1
    26     8    25    1
    27     8    26    1
    28    10    27    1
    29    11    28    1
    30    12    29    1
    31    13    30    1
    32    16    31    1
@<TRIPOS>MOLECULE
../data/bude_mols_rdkit_confs_charged/molecule_46.pdb
 31 32 0 0 0
SMALL
GASTEIGER

@<TRIPOS>ATOM
      1 O          -5.2190    1.6990    0.3510 O.2     1  UNL1       -0.2451
      2 C          -3.9660    1.7550    0.2610 C.2     1  UNL1        0.3365
      3 O          -3.3530    3.0140    0.2130 O.3     1  UNL1       -0.4771
      4 C          -3.1930    0.5500    0.2210 C.ar    1  UNL1        0.0610
      5 C          -1.7720    0.5930    0.1440 C.ar    1  UNL1       -0.0061
      6 C          -0.9830   -0.5110    0.1610 C.ar    1  UNL1        0.1282
      7 O           0.3700   -0.4910    0.0490 O.3     1  UNL1       -0.4870
      8 C           1.1340    0.6360   -0.2680 C.3     1  UNL1        0.1173
      9 C           2.5720    0.3660   -0.1080 C.ar    1  UNL1        0.0248
     10 C           3.1400    0.6530    1.1450 C.ar    1  UNL1       -0.0526
     11 C           4.5280    0.6100    1.3000 C.ar    1  UNL1       -0.0612
     12 C           5.3110    0.2720    0.2590 C.ar    1  UNL1       -0.0590
     13 C           4.7730   -0.0260   -1.0140 C.ar    1  UNL1       -0.0261
     14 C           3.3830    0.0400   -1.1400 C.ar    1  UNL1        0.1298
     15 F           2.8440   -0.2260   -2.3880 F       1  UNL1       -0.2051
     16 C          -1.5700   -1.7850    0.2720 C.ar    1  UNL1        0.0567
     17 C          -2.9410   -1.8540    0.3360 C.ar    1  UNL1        0.2698
     18 N          -3.5930   -3.1110    0.3390 N.pl3   1  UNL1        0.0791
     19 O          -4.6880   -3.2640   -0.2050 O.2     1  UNL1        0.0414
     20 O          -2.9640   -4.1900    0.9140 O.co2   1  UNL1       -0.5761
     21 C          -3.7460   -0.7040    0.3140 C.ar    1  UNL1       -0.0142
     22 O          -5.1290   -0.8400    0.3960 O.co2   1  UNL1       -0.8688
     23 H          -2.4207    3.0789    0.1460 H       1  UNL1        0.2954
     24 H          -1.3162    1.5160    0.0711 H       1  UNL1        0.0662
     25 H           0.8555    1.4402    0.3806 H       1  UNL1        0.0749
     26 H           0.9492    0.8943   -1.2898 H       1  UNL1        0.0749
     27 H           2.5355    0.8941    1.9459 H       1  UNL1        0.0622
     28 H           4.9526    0.8374    2.2127 H       1  UNL1        0.0618
     29 H           6.3333    0.2291    0.3938 H       1  UNL1        0.0618
     30 H           5.3773   -0.2798   -1.8111 H       1  UNL1        0.0646
     31 H          -0.9907   -2.6385    0.3042 H       1  UNL1        0.0722
@<TRIPOS>UNITY_ATOM_ATTR
18 1
charge 1
20 1
charge -1
22 1
charge -1
@<TRIPOS>BOND
     1     1     2    2
     2     2     3    1
     3     2     4    1
     4     4     5   ar
     5     4    21   ar
     6     5     6   ar
     7     6     7    1
     8     6    16   ar
     9     7     8    1
    10     8     9    1
    11     9    10   ar
    12     9    14   ar
    13    10    11   ar
    14    11    12   ar
    15    12    13   ar
    16    13    14   ar
    17    14    15    1
    18    16    17   ar
    19    17    18    1
    20    17    21   ar
    21    18    19    2
    22    18    20    1
    23    21    22    1
    24     3    23    1
    25     5    24    1
    26     8    25    1
    27     8    26    1
    28    10    27    1
    29    11    28    1
    30    12    29    1
    31    13    30    1
    32    16    31    1
@<TRIPOS>MOLECULE
../data/bude_mols_rdkit_confs_charged/molecule_46.pdb
 31 32 0 0 0
SMALL
GASTEIGER

@<TRIPOS>ATOM
      1 O           3.9170   -2.7540    0.3790 O.2     1  UNL1       -0.2451
      2 C           4.2870   -1.5550    0.2680 C.2     1  UNL1        0.3365
      3 O           5.6270   -1.2710    0.4270 O.3     1  UNL1       -0.4771
      4 C           3.2670   -0.5600   -0.0190 C.ar    1  UNL1        0.0610
      5 C           1.9480   -0.9540   -0.0440 C.ar    1  UNL1       -0.0061
      6 C           0.9340   -0.0630   -0.2410 C.ar    1  UNL1        0.1282
      7 O          -0.3980   -0.2520   -0.2450 O.3     1  UNL1       -0.4870
      8 C          -1.2780   -1.2740   -0.0010 C.3     1  UNL1        0.1173
      9 C          -2.6330   -0.6710   -0.0760 C.ar    1  UNL1        0.0248
     10 C          -3.4720   -0.5980   -1.1510 C.ar    1  UNL1       -0.0526
     11 C          -4.7770   -0.1310   -1.0780 C.ar    1  UNL1       -0.0612
     12 C          -5.2930    0.2910    0.1570 C.ar    1  UNL1       -0.0590
     13 C          -4.4720    0.2220    1.2560 C.ar    1  UNL1       -0.0261
     14 C          -3.1900   -0.2360    1.1870 C.ar    1  UNL1        0.1298
     15 F          -2.3630   -0.2810    2.2620 F       1  UNL1       -0.2051
     16 C           1.3140    1.2800   -0.4300 C.ar    1  UNL1        0.0567
     17 C           2.6290    1.7100   -0.4050 C.ar    1  UNL1        0.2698
     18 N           2.9220    3.1190   -0.5050 N.pl3   1  UNL1        0.0791
     19 O           3.8920    3.6510    0.0630 O.2     1  UNL1        0.0414
     20 O           2.0450    3.8540   -1.2500 O.co2   1  UNL1       -0.5761
     21 C           3.5970    0.7880   -0.1980 C.ar    1  UNL1       -0.0142
     22 O           4.9090    1.2080   -0.1540 O.co2   1  UNL1       -0.8688
     23 H           5.9311   -0.3881    0.3500 H       1  UNL1        0.2954
     24 H           1.7200   -1.9515    0.0901 H       1  UNL1        0.0662
     25 H          -1.1079   -1.6875    0.9711 H       1  UNL1        0.0749
     26 H          -1.1622   -2.0692   -0.7075 H       1  UNL1        0.0749
     27 H          -3.1159   -0.9073   -2.0689 H       1  UNL1        0.0622
     28 H          -5.3639   -0.0943   -1.9261 H       1  UNL1        0.0618
     29 H          -6.2600    0.6425    0.2370 H       1  UNL1        0.0618
     30 H          -4.8402    0.5290    2.1699 H       1  UNL1        0.0646
     31 H           0.5735    1.9794   -0.5957 H       1  UNL1        0.0722
@<TRIPOS>UNITY_ATOM_ATTR
18 1
charge 1
20 1
charge -1
22 1
charge -1
@<TRIPOS>BOND
     1     1     2    2
     2     2     3    1
     3     2     4    1
     4     4     5   ar
     5     4    21   ar
     6     5     6   ar
     7     6     7    1
     8     6    16   ar
     9     7     8    1
    10     8     9    1
    11     9    10   ar
    12     9    14   ar
    13    10    11   ar
    14    11    12   ar
    15    12    13   ar
    16    13    14   ar
    17    14    15    1
    18    16    17   ar
    19    17    18    1
    20    17    21   ar
    21    18    19    2
    22    18    20    1
    23    21    22    1
    24     3    23    1
    25     5    24    1
    26     8    25    1
    27     8    26    1
    28    10    27    1
    29    11    28    1
    30    12    29    1
    31    13    30    1
    32    16    31    1
@<TRIPOS>MOLECULE
../data/bude_mols_rdkit_confs_charged/molecule_46.pdb
 31 32 0 0 0
SMALL
GASTEIGER

@<TRIPOS>ATOM
      1 O          -5.4800   -1.7790    0.2440 O.2     1  UNL1       -0.2451
      2 C          -4.2110   -1.9860    0.3680 C.2     1  UNL1        0.3365
      3 O          -3.8320   -3.2430    0.6960 O.3     1  UNL1       -0.4771
      4 C          -3.3150   -0.8880    0.1610 C.ar    1  UNL1        0.0610
      5 C          -1.9530   -1.0510    0.1920 C.ar    1  UNL1       -0.0061
      6 C          -1.0380   -0.0900   -0.0740 C.ar    1  UNL1        0.1282
      7 O           0.3000   -0.3810    0.0140 O.3     1  UNL1       -0.4870
      8 C           1.3000    0.5890   -0.3740 C.3     1  UNL1        0.1173
      9 C           2.6450    0.1220   -0.1740 C.ar    1  UNL1        0.0248
     10 C           3.2520    0.1850    1.0820 C.ar    1  UNL1       -0.0526
     11 C           4.6040   -0.0760    1.2430 C.ar    1  UNL1       -0.0612
     12 C           5.4210   -0.4180    0.1550 C.ar    1  UNL1       -0.0590
     13 C           4.8210   -0.4900   -1.1050 C.ar    1  UNL1       -0.0261
     14 C           3.4600   -0.2170   -1.2360 C.ar    1  UNL1        0.1298
     15 F           2.9680   -0.3090   -2.4880 F       1  UNL1       -0.2051
     16 C          -1.5540    1.1610   -0.4140 C.ar    1  UNL1        0.0567
     17 C          -2.9230    1.3730   -0.4650 C.ar    1  UNL1        0.2698
     18 N          -3.3270    2.6980   -0.7930 N.pl3   1  UNL1        0.0791
     19 O          -2.6660    3.4960   -1.4180 O.2     1  UNL1        0.0414
     20 O          -4.5950    3.0750   -0.3620 O.co2   1  UNL1       -0.5761
     21 C          -3.8300    0.3880   -0.1900 C.ar    1  UNL1       -0.0142
     22 O          -5.1730    0.5860   -0.2450 O.co2   1  UNL1       -0.8688
     23 H          -2.9231   -3.4466    0.7983 H       1  UNL1        0.2954
     24 H          -1.5956   -1.9870    0.4395 H       1  UNL1        0.0662
     25 H           1.1575    1.4762    0.2069 H       1  UNL1        0.0749
     26 H           1.1779    0.7723   -1.4211 H       1  UNL1        0.0749
     27 H           2.6827    0.4308    1.9070 H       1  UNL1        0.0622
     28 H           5.0194   -0.0173    2.1859 H       1  UNL1        0.0618
     29 H           6.4273   -0.6092    0.2805 H       1  UNL1        0.0618
     30 H           5.3818   -0.7437   -1.9334 H       1  UNL1        0.0646
     31 H          -0.9092    1.9373   -0.6300 H       1  UNL1        0.0722
@<TRIPOS>UNITY_ATOM_ATTR
18 1
charge 1
20 1
charge -1
22 1
charge -1
@<TRIPOS>BOND
     1     1     2    2
     2     2     3    1
     3     2     4    1
     4     4     5   ar
     5     4    21   ar
     6     5     6   ar
     7     6     7    1
     8     6    16   ar
     9     7     8    1
    10     8     9    1
    11     9    10   ar
    12     9    14   ar
    13    10    11   ar
    14    11    12   ar
    15    12    13   ar
    16    13    14   ar
    17    14    15    1
    18    16    17   ar
    19    17    18    1
    20    17    21   ar
    21    18    19    2
    22    18    20    1
    23    21    22    1
    24     3    23    1
    25     5    24    1
    26     8    25    1
    27     8    26    1
    28    10    27    1
    29    11    28    1
    30    12    29    1
    31    13    30    1
    32    16    31    1
