@<TRIPOS>MOLECULE
../data/bude_mols_rdkit_confs_charged/molecule_88.pdb
 46 48 0 0 0
SMALL
GASTEIGER

@<TRIPOS>ATOM
      1  N1        -6.5000    0.0040    1.3270 N.pl3   1  UNL1       -0.3567
      2  C1        -5.8350   -0.8990    0.4460 C.ar    1  UNL1        0.0457
      3  C2        -6.2960   -2.1280    0.1270 C.ar    1  UNL1        0.1427
      4  F1        -7.4530   -2.6080    0.6260 F       1  UNL1       -0.2036
      5  C3        -5.5660   -2.9110   -0.7380 C.ar    1  UNL1       -0.0247
      6  C4        -4.3770   -2.4790   -1.2920 C.ar    1  UNL1       -0.0601
      7  C5        -3.9020   -1.2380   -0.9780 C.ar    1  UNL1       -0.0743
      8  C6        -4.6050   -0.4020   -0.1040 C.ar    1  UNL1       -0.1053
      9  N2        -4.1580    0.8090    0.1970 N.pl3   1  UNL1       -0.5353
     10  S1        -3.6160    2.2210    0.5740 S.O2    1  UNL1       -0.0589
     11  O1        -4.3460    3.3200   -0.2830 O.2     1  UNL1       -0.1842
     12  O2        -4.1190    2.6460    2.0330 O.2     1  UNL1       -0.1842
     13  C7        -1.9470    2.7060    0.5700 C.ar    1  UNL1        0.0733
     14  C8        -1.7160    4.0960    0.7260 C.ar    1  UNL1       -0.0382
     15  C9        -0.4680    4.6390    0.7240 C.ar    1  UNL1       -0.0593
     16  C10        0.6170    3.8160    0.5650 C.ar    1  UNL1       -0.0495
     17  C11        0.4370    2.4190    0.4070 C.ar    1  UNL1        0.0399
     18  C12        1.6650    1.6960    0.2520 C.2     1  UNL1        0.2602
     19  O3         2.6910    2.1640    0.8960 O.2     1  UNL1       -0.2687
     20  N3         1.9660    0.5500   -0.4980 N.am    1  UNL1       -0.2301
     21  N4         3.2880    0.0310   -0.5150 N.am    1  UNL1       -0.2300
     22  C13        3.6280   -1.3380   -0.5970 C.2     1  UNL1        0.2629
     23  O4         2.6360   -2.1330   -0.6660 O.2     1  UNL1       -0.2686
     24  C14        5.0110   -1.8450   -0.6080 C.ar    1  UNL1        0.0733
     25  C15        5.3190   -3.0880   -1.1570 C.ar    1  UNL1       -0.0468
     26  C16        6.6240   -3.5350   -1.2080 C.ar    1  UNL1       -0.0609
     27  C17        7.6670   -2.7790   -0.7240 C.ar    1  UNL1       -0.0590
     28  C18        7.3960   -1.5420   -0.1700 C.ar    1  UNL1       -0.0257
     29  C19        6.0610   -1.1070   -0.1280 C.ar    1  UNL1        0.1355
     30  F2         5.8520    0.1010    0.4510 F       1  UNL1       -0.2047
     31  C20       -0.8470    1.9180    0.4160 C.ar    1  UNL1       -0.0261
     32 H          -7.3506   -0.2565    1.7488 H       1  UNL1        0.1424
     33 H          -6.1085    0.8879    1.5134 H       1  UNL1        0.1424
     34 H          -5.9181   -3.8503   -0.9802 H       1  UNL1        0.0647
     35 H          -3.8519   -3.0890   -1.9379 H       1  UNL1        0.0618
     36 H          -3.0136   -0.9128   -1.3904 H       1  UNL1        0.0606
     37 H          -2.5277    4.7220    0.8460 H       1  UNL1        0.0636
     38 H          -0.3401    5.6564    0.8406 H       1  UNL1        0.0618
     39 H           1.5686    4.2153    0.5603 H       1  UNL1        0.0625
     40 H           1.2576    0.1030   -1.0153 H       1  UNL1        0.1731
     41 H           4.0282    0.6782   -0.4656 H       1  UNL1        0.1731
     42 H           4.5620   -3.6819   -1.5302 H       1  UNL1        0.0626
     43 H           6.8226   -4.4602   -1.6198 H       1  UNL1        0.0618
     44 H           8.6362   -3.1301   -0.7739 H       1  UNL1        0.0618
     45 H           8.1560   -0.9523    0.2037 H       1  UNL1        0.0646
     46 H          -0.9807    0.9012    0.3010 H       1  UNL1        0.0644
@<TRIPOS>UNITY_ATOM_ATTR
9 1
charge -1
@<TRIPOS>BOND
     1     1     2    1
     2     2     3   ar
     3     2     8   ar
     4     3     4    1
     5     3     5   ar
     6     5     6   ar
     7     6     7   ar
     8     7     8   ar
     9     8     9    1
    10     9    10    1
    11    10    11    2
    12    10    12    2
    13    10    13    1
    14    13    14   ar
    15    13    31   ar
    16    14    15   ar
    17    15    16   ar
    18    16    17   ar
    19    17    18    1
    20    17    31   ar
    21    18    19    2
    22    18    20   am
    23    20    21    1
    24    21    22   am
    25    22    23    2
    26    22    24    1
    27    24    25   ar
    28    24    29   ar
    29    25    26   ar
    30    26    27   ar
    31    27    28   ar
    32    28    29   ar
    33    29    30    1
    34     1    32    1
    35     1    33    1
    36     5    34    1
    37     6    35    1
    38     7    36    1
    39    14    37    1
    40    15    38    1
    41    16    39    1
    42    20    40    1
    43    21    41    1
    44    25    42    1
    45    26    43    1
    46    27    44    1
    47    28    45    1
    48    31    46    1
@<TRIPOS>MOLECULE
../data/bude_mols_rdkit_confs_charged/molecule_88.pdb
 46 48 0 0 0
SMALL
GASTEIGER

@<TRIPOS>ATOM
      1  N1        -7.0650   -1.7810    0.0600 N.pl3   1  UNL1       -0.3567
      2  C1        -6.3730   -0.7930   -0.6770 C.ar    1  UNL1        0.0457
      3  C2        -7.0530    0.3060   -1.1470 C.ar    1  UNL1        0.1427
      4  F1        -8.3890    0.4850   -0.9310 F       1  UNL1       -0.2036
      5  C3        -6.4140    1.3080   -1.8800 C.ar    1  UNL1       -0.0247
      6  C4        -5.0620    1.2100   -2.1490 C.ar    1  UNL1       -0.0601
      7  C5        -4.3860    0.1030   -1.6720 C.ar    1  UNL1       -0.0743
      8  C6        -5.0260   -0.8810   -0.9510 C.ar    1  UNL1       -0.1053
      9  N2        -4.3190   -1.9990   -0.4750 N.pl3   1  UNL1       -0.5353
     10  S1        -3.5510   -2.0330    1.0730 S.O2    1  UNL1       -0.0589
     11  O1        -2.9030   -3.3590    1.3360 O.2     1  UNL1       -0.1842
     12  O2        -4.5600   -1.7490    2.1700 O.2     1  UNL1       -0.1842
     13  C7        -2.3020   -0.8150    1.2100 C.ar    1  UNL1        0.0733
     14  C8        -2.5970    0.4730    1.6400 C.ar    1  UNL1       -0.0382
     15  C9        -1.6270    1.4420    1.7610 C.ar    1  UNL1       -0.0593
     16  C10       -0.3300    1.0920    1.4380 C.ar    1  UNL1       -0.0495
     17  C11        0.0360   -0.1600    1.0060 C.ar    1  UNL1        0.0399
     18  C12        1.4110   -0.5380    0.6740 C.2     1  UNL1        0.2602
     19  O3         1.5950   -1.6690    0.1430 O.2     1  UNL1       -0.2687
     20  N3         2.4790    0.3240    0.9370 N.am    1  UNL1       -0.2301
     21  N4         3.8200   -0.0430    0.6190 N.am    1  UNL1       -0.2300
     22  C13        4.6620    0.8320   -0.0980 C.2     1  UNL1        0.2629
     23  O4         4.1450    1.9540   -0.4370 O.2     1  UNL1       -0.2686
     24  C14        6.0370    0.5940   -0.4850 C.ar    1  UNL1        0.0733
     25  C15        6.6920    1.5230   -1.2990 C.ar    1  UNL1       -0.0468
     26  C16        7.9920    1.3770   -1.7250 C.ar    1  UNL1       -0.0609
     27  C17        8.7330    0.2710   -1.3560 C.ar    1  UNL1       -0.0590
     28  C18        8.1070   -0.6560   -0.5550 C.ar    1  UNL1       -0.0257
     29  C19        6.7870   -0.4990   -0.1280 C.ar    1  UNL1        0.1355
     30  F2         6.2390   -1.4630    0.6740 F       1  UNL1       -0.2047
     31  C20       -0.9950   -1.0990    0.9040 C.ar    1  UNL1       -0.0261
     32 H          -8.0287   -1.6803    0.2343 H       1  UNL1        0.1424
     33 H          -6.5832   -2.5698    0.3990 H       1  UNL1        0.1424
     34 H          -6.9508    2.1210   -2.2205 H       1  UNL1        0.0647
     35 H          -4.5725    1.9405   -2.6891 H       1  UNL1        0.0618
     36 H          -3.3756    0.0111   -1.8608 H       1  UNL1        0.0606
     37 H          -3.5733    0.7103    1.8759 H       1  UNL1        0.0636
     38 H          -1.8599    2.3950    2.0812 H       1  UNL1        0.0618
     39 H           0.4050    1.8111    1.5261 H       1  UNL1        0.0625
     40 H           2.3025    1.2004    1.3492 H       1  UNL1        0.1731
     41 H           4.1631   -0.9205    0.9044 H       1  UNL1        0.1731
     42 H           6.1723    2.3636   -1.5963 H       1  UNL1        0.0626
     43 H           8.4175    2.1003   -2.3257 H       1  UNL1        0.0618
     44 H           9.7093    0.1461   -1.6663 H       1  UNL1        0.0618
     45 H           8.6304   -1.4951   -0.2600 H       1  UNL1        0.0646
     46 H          -0.7616   -2.0517    0.5831 H       1  UNL1        0.0644
@<TRIPOS>UNITY_ATOM_ATTR
9 1
charge -1
@<TRIPOS>BOND
     1     1     2    1
     2     2     3   ar
     3     2     8   ar
     4     3     4    1
     5     3     5   ar
     6     5     6   ar
     7     6     7   ar
     8     7     8   ar
     9     8     9    1
    10     9    10    1
    11    10    11    2
    12    10    12    2
    13    10    13    1
    14    13    14   ar
    15    13    31   ar
    16    14    15   ar
    17    15    16   ar
    18    16    17   ar
    19    17    18    1
    20    17    31   ar
    21    18    19    2
    22    18    20   am
    23    20    21    1
    24    21    22   am
    25    22    23    2
    26    22    24    1
    27    24    25   ar
    28    24    29   ar
    29    25    26   ar
    30    26    27   ar
    31    27    28   ar
    32    28    29   ar
    33    29    30    1
    34     1    32    1
    35     1    33    1
    36     5    34    1
    37     6    35    1
    38     7    36    1
    39    14    37    1
    40    15    38    1
    41    16    39    1
    42    20    40    1
    43    21    41    1
    44    25    42    1
    45    26    43    1
    46    27    44    1
    47    28    45    1
    48    31    46    1
@<TRIPOS>MOLECULE
../data/bude_mols_rdkit_confs_charged/molecule_88.pdb
 46 48 0 0 0
SMALL
GASTEIGER

@<TRIPOS>ATOM
      1  N1        -3.8800   -1.8510   -0.3010 N.pl3   1  UNL1       -0.3567
      2  C1        -5.1250   -1.1610   -0.2400 C.ar    1  UNL1        0.0457
      3  C2        -6.0220   -1.4410    0.7870 C.ar    1  UNL1        0.1427
      4  F1        -5.6530   -2.3510    1.7260 F       1  UNL1       -0.2036
      5  C3        -7.2430   -0.8260    0.8600 C.ar    1  UNL1       -0.0247
      6  C4        -7.5640    0.0870   -0.1200 C.ar    1  UNL1       -0.0601
      7  C5        -6.6950    0.3750   -1.1360 C.ar    1  UNL1       -0.0743
      8  C6        -5.4380   -0.2490   -1.2240 C.ar    1  UNL1       -0.1053
      9  N2        -4.5770    0.1280   -2.2780 N.pl3   1  UNL1       -0.5353
     10  S1        -3.5070    1.4370   -2.1430 S.O2    1  UNL1       -0.0589
     11  O1        -4.2200    2.7490   -1.9580 O.2     1  UNL1       -0.1842
     12  O2        -2.7630    1.5540   -3.4700 O.2     1  UNL1       -0.1842
     13  C7        -2.3140    1.2800   -0.8840 C.ar    1  UNL1        0.0733
     14  C8        -2.6140    1.7020    0.4120 C.ar    1  UNL1       -0.0382
     15  C9        -1.6970    1.6120    1.4480 C.ar    1  UNL1       -0.0593
     16  C10       -0.4570    1.0870    1.1670 C.ar    1  UNL1       -0.0495
     17  C11       -0.1030    0.6580   -0.0810 C.ar    1  UNL1        0.0399
     18  C12        1.2290    0.1060   -0.3970 C.2     1  UNL1        0.2602
     19  O3         1.4610   -0.2950   -1.5660 O.2     1  UNL1       -0.2687
     20  N3         2.2520    0.0130    0.5560 N.am    1  UNL1       -0.2301
     21  N4         3.5280   -0.5230    0.2060 N.am    1  UNL1       -0.2300
     22  C13        4.6970    0.1650    0.5890 C.2     1  UNL1        0.2629
     23  O4         4.5050    1.2590    1.2550 O.2     1  UNL1       -0.2686
     24  C14        6.0620   -0.2500    0.3030 C.ar    1  UNL1        0.0733
     25  C15        7.1140    0.4900    0.8680 C.ar    1  UNL1       -0.0468
     26  C16        8.4240    0.1660    0.6510 C.ar    1  UNL1       -0.0609
     27  C17        8.7530   -0.9190   -0.1470 C.ar    1  UNL1       -0.0590
     28  C18        7.7510   -1.6510   -0.7060 C.ar    1  UNL1       -0.0257
     29  C19        6.4370   -1.3070   -0.4740 C.ar    1  UNL1        0.1355
     30  F2         5.5030   -2.0700   -1.0640 F       1  UNL1       -0.2047
     31  C20       -1.0490    0.7670   -1.0810 C.ar    1  UNL1       -0.0261
     32 H          -3.6450   -2.5051    0.3963 H       1  UNL1        0.1424
     33 H          -3.2547   -1.6737   -1.0405 H       1  UNL1        0.1424
     34 H          -7.9019   -1.0397    1.6250 H       1  UNL1        0.0647
     35 H          -8.4788    0.5634   -0.0870 H       1  UNL1        0.0618
     36 H          -6.9676    1.0650   -1.8534 H       1  UNL1        0.0606
     37 H          -3.5489    2.0938    0.6055 H       1  UNL1        0.0636
     38 H          -1.9372    1.9290    2.4003 H       1  UNL1        0.0618
     39 H           0.2341    1.0142    1.9299 H       1  UNL1        0.0625
     40 H           2.0890    0.3206    1.4769 H       1  UNL1        0.1731
     41 H           3.5909   -1.3660   -0.2986 H       1  UNL1        0.1731
     42 H           6.8911    1.3022    1.4645 H       1  UNL1        0.0626
     43 H           9.1715    0.7314    1.0830 H       1  UNL1        0.0618
     44 H           9.7406   -1.1673   -0.3142 H       1  UNL1        0.0618
     45 H           7.9750   -2.4626   -1.3028 H       1  UNL1        0.0646
     46 H          -0.7953    0.4467   -2.0287 H       1  UNL1        0.0644
@<TRIPOS>UNITY_ATOM_ATTR
9 1
charge -1
@<TRIPOS>BOND
     1     1     2    1
     2     2     3   ar
     3     2     8   ar
     4     3     4    1
     5     3     5   ar
     6     5     6   ar
     7     6     7   ar
     8     7     8   ar
     9     8     9    1
    10     9    10    1
    11    10    11    2
    12    10    12    2
    13    10    13    1
    14    13    14   ar
    15    13    31   ar
    16    14    15   ar
    17    15    16   ar
    18    16    17   ar
    19    17    18    1
    20    17    31   ar
    21    18    19    2
    22    18    20   am
    23    20    21    1
    24    21    22   am
    25    22    23    2
    26    22    24    1
    27    24    25   ar
    28    24    29   ar
    29    25    26   ar
    30    26    27   ar
    31    27    28   ar
    32    28    29   ar
    33    29    30    1
    34     1    32    1
    35     1    33    1
    36     5    34    1
    37     6    35    1
    38     7    36    1
    39    14    37    1
    40    15    38    1
    41    16    39    1
    42    20    40    1
    43    21    41    1
    44    25    42    1
    45    26    43    1
    46    27    44    1
    47    28    45    1
    48    31    46    1
@<TRIPOS>MOLECULE
../data/bude_mols_rdkit_confs_charged/molecule_88.pdb
 46 48 0 0 0
SMALL
GASTEIGER

@<TRIPOS>ATOM
      1  N1         6.1320    0.8820   -2.8230 N.pl3   1  UNL1       -0.3567
      2  C1         5.7170   -0.0070   -1.7990 C.ar    1  UNL1        0.0457
      3  C2         6.6460   -0.6240   -0.9540 C.ar    1  UNL1        0.1427
      4  F1         7.9710   -0.3900   -1.0880 F       1  UNL1       -0.2036
      5  C3         6.2220   -1.4830    0.0330 C.ar    1  UNL1       -0.0247
      6  C4         4.8670   -1.7070    0.1520 C.ar    1  UNL1       -0.0601
      7  C5         3.9260   -1.1010   -0.6820 C.ar    1  UNL1       -0.0743
      8  C6         4.3680   -0.2450   -1.6620 C.ar    1  UNL1       -0.1053
      9  N2         3.4200    0.3760   -2.5090 N.pl3   1  UNL1       -0.5353
     10  S1         2.8040    1.9130   -1.9500 S.O2    1  UNL1       -0.0589
     11  O1         3.9360    2.8860   -1.7820 O.2     1  UNL1       -0.1842
     12  O2         1.9050    2.4380   -3.0100 O.2     1  UNL1       -0.1842
     13  C7         1.9730    1.7090   -0.4230 C.ar    1  UNL1        0.0733
     14  C8         2.6740    1.8230    0.7570 C.ar    1  UNL1       -0.0382
     15  C9         1.9900    1.6520    1.9650 C.ar    1  UNL1       -0.0593
     16  C10        0.6370    1.3730    2.0050 C.ar    1  UNL1       -0.0495
     17  C11       -0.0740    1.2580    0.8230 C.ar    1  UNL1        0.0399
     18  C12       -1.4930    0.9610    0.7890 C.2     1  UNL1        0.2602
     19  O3        -2.0890    1.0250   -0.3210 O.2     1  UNL1       -0.2687
     20  N3        -2.2400    0.6010    1.9440 N.am    1  UNL1       -0.2301
     21  N4        -3.6310    0.3310    1.7770 N.am    1  UNL1       -0.2300
     22  C13       -4.0640   -0.6880    0.9070 C.2     1  UNL1        0.2629
     23  O4        -3.1020   -1.3110    0.3120 O.2     1  UNL1       -0.2686
     24  C14       -5.4260   -1.0860    0.6270 C.ar    1  UNL1        0.0733
     25  C15       -5.6860   -2.0570   -0.3460 C.ar    1  UNL1       -0.0468
     26  C16       -6.9320   -2.4850   -0.6780 C.ar    1  UNL1       -0.0609
     27  C17       -8.0330   -1.9470   -0.0340 C.ar    1  UNL1       -0.0590
     28  C18       -7.8210   -0.9950    0.9250 C.ar    1  UNL1       -0.0257
     29  C19       -6.5200   -0.5690    1.2510 C.ar    1  UNL1        0.1355
     30  F2        -6.4120    0.3660    2.2080 F       1  UNL1       -0.2047
     31  C20        0.6250    1.4310   -0.3700 C.ar    1  UNL1       -0.0261
     32 H           7.0891    1.0750   -2.9493 H       1  UNL1        0.1424
     33 H           5.4630    1.3062   -3.4076 H       1  UNL1        0.1424
     34 H           6.8960   -1.9446    0.6636 H       1  UNL1        0.0647
     35 H           4.5346   -2.3493    0.8882 H       1  UNL1        0.0618
     36 H           2.9186   -1.2919   -0.5650 H       1  UNL1        0.0606
     37 H           3.6849    2.0307    0.7500 H       1  UNL1        0.0636
     38 H           2.5107    1.7366    2.8520 H       1  UNL1        0.0618
     39 H           0.1592    1.2510    2.9116 H       1  UNL1        0.0625
     40 H          -1.8121    0.5401    2.8286 H       1  UNL1        0.1731
     41 H          -4.2941    0.8620    2.2746 H       1  UNL1        0.1731
     42 H          -4.8824   -2.4735   -0.8418 H       1  UNL1        0.0626
     43 H          -7.0568   -3.2063   -1.4054 H       1  UNL1        0.0618
     44 H          -8.9886   -2.2561   -0.2712 H       1  UNL1        0.0618
     45 H          -8.6285   -0.5823    1.4176 H       1  UNL1        0.0646
     46 H           0.1067    1.3466   -1.2584 H       1  UNL1        0.0644
@<TRIPOS>UNITY_ATOM_ATTR
9 1
charge -1
@<TRIPOS>BOND
     1     1     2    1
     2     2     3   ar
     3     2     8   ar
     4     3     4    1
     5     3     5   ar
     6     5     6   ar
     7     6     7   ar
     8     7     8   ar
     9     8     9    1
    10     9    10    1
    11    10    11    2
    12    10    12    2
    13    10    13    1
    14    13    14   ar
    15    13    31   ar
    16    14    15   ar
    17    15    16   ar
    18    16    17   ar
    19    17    18    1
    20    17    31   ar
    21    18    19    2
    22    18    20   am
    23    20    21    1
    24    21    22   am
    25    22    23    2
    26    22    24    1
    27    24    25   ar
    28    24    29   ar
    29    25    26   ar
    30    26    27   ar
    31    27    28   ar
    32    28    29   ar
    33    29    30    1
    34     1    32    1
    35     1    33    1
    36     5    34    1
    37     6    35    1
    38     7    36    1
    39    14    37    1
    40    15    38    1
    41    16    39    1
    42    20    40    1
    43    21    41    1
    44    25    42    1
    45    26    43    1
    46    27    44    1
    47    28    45    1
    48    31    46    1
@<TRIPOS>MOLECULE
../data/bude_mols_rdkit_confs_charged/molecule_88.pdb
 46 48 0 0 0
SMALL
GASTEIGER

@<TRIPOS>ATOM
      1  N1        -6.4940   -1.0060   -2.0660 N.pl3   1  UNL1       -0.3567
      2  C1        -6.8320   -0.4910   -0.7650 C.ar    1  UNL1        0.0457
      3  C2        -8.0790    0.0250   -0.4930 C.ar    1  UNL1        0.1427
      4  F1        -9.0390    0.0840   -1.4560 F       1  UNL1       -0.2036
      5  C3        -8.3400    0.4830    0.7760 C.ar    1  UNL1       -0.0247
      6  C4        -7.3680    0.4210    1.7370 C.ar    1  UNL1       -0.0601
      7  C5        -6.1180   -0.1020    1.4450 C.ar    1  UNL1       -0.0743
      8  C6        -5.8130   -0.5720    0.1890 C.ar    1  UNL1       -0.1053
      9  N2        -4.5290   -1.1000   -0.1620 N.pl3   1  UNL1       -0.5353
     10  S1        -3.3580    0.0150   -0.7290 S.O2    1  UNL1       -0.0589
     11  O1        -3.9440    1.3670   -0.8430 O.2     1  UNL1       -0.1842
     12  O2        -2.9280   -0.4780   -2.1010 O.2     1  UNL1       -0.1842
     13  C7        -1.9750    0.0960    0.3380 C.ar    1  UNL1        0.0733
     14  C8        -2.0980    0.4350    1.6630 C.ar    1  UNL1       -0.0382
     15  C9        -0.9360    0.5300    2.4460 C.ar    1  UNL1       -0.0593
     16  C10        0.2790    0.2900    1.8850 C.ar    1  UNL1       -0.0495
     17  C11        0.4430   -0.0530    0.5530 C.ar    1  UNL1        0.0399
     18  C12        1.7750   -0.2360   -0.0490 C.2     1  UNL1        0.2602
     19  O3         2.0050   -1.2370   -0.7880 O.2     1  UNL1       -0.2687
     20  N3         2.8060    0.6880    0.1700 N.am    1  UNL1       -0.2301
     21  N4         4.0920    0.6430   -0.3590 N.am    1  UNL1       -0.2300
     22  C13        5.1820   -0.0930    0.1160 C.2     1  UNL1        0.2629
     23  O4         4.9490   -0.8110    1.1510 O.2     1  UNL1       -0.2686
     24  C14        6.5290   -0.1170   -0.4380 C.ar    1  UNL1        0.0733
     25  C15        7.5130   -0.9310    0.1350 C.ar    1  UNL1       -0.0468
     26  C16        8.7980   -1.0060   -0.3090 C.ar    1  UNL1       -0.0609
     27  C17        9.1810   -0.2570   -1.3740 C.ar    1  UNL1       -0.0590
     28  C18        8.2520    0.5650   -1.9830 C.ar    1  UNL1       -0.0257
     29  C19        6.9320    0.6280   -1.5070 C.ar    1  UNL1        0.1355
     30  F2         6.1110    1.4700   -2.1680 F       1  UNL1       -0.2047
     31  C20       -0.7120   -0.1410   -0.1870 C.ar    1  UNL1       -0.0261
     32 H          -7.1587   -0.9844   -2.7919 H       1  UNL1        0.1424
     33 H          -5.5981   -1.3798   -2.2299 H       1  UNL1        0.1424
     34 H          -9.2678    0.8732    1.0039 H       1  UNL1        0.0647
     35 H          -7.5675    0.7670    2.6886 H       1  UNL1        0.0618
     36 H          -5.4007   -0.1395    2.1860 H       1  UNL1        0.0606
     37 H          -3.0264    0.6165    2.0755 H       1  UNL1        0.0636
     38 H          -1.0042    0.7813    3.4446 H       1  UNL1        0.0618
     39 H           1.1189    0.3670    2.4797 H       1  UNL1        0.0625
     40 H           2.5984    1.4484    0.7599 H       1  UNL1        0.1731
     41 H           4.2531    1.1925   -1.1598 H       1  UNL1        0.1731
     42 H           7.2476   -1.5115    0.9459 H       1  UNL1        0.0626
     43 H           9.4752   -1.6273    0.1605 H       1  UNL1        0.0618
     44 H          10.1510   -0.3007   -1.7236 H       1  UNL1        0.0618
     45 H           8.5306    1.1378   -2.7950 H       1  UNL1        0.0646
     46 H          -0.6363   -0.3964   -1.1840 H       1  UNL1        0.0644
@<TRIPOS>UNITY_ATOM_ATTR
9 1
charge -1
@<TRIPOS>BOND
     1     1     2    1
     2     2     3   ar
     3     2     8   ar
     4     3     4    1
     5     3     5   ar
     6     5     6   ar
     7     6     7   ar
     8     7     8   ar
     9     8     9    1
    10     9    10    1
    11    10    11    2
    12    10    12    2
    13    10    13    1
    14    13    14   ar
    15    13    31   ar
    16    14    15   ar
    17    15    16   ar
    18    16    17   ar
    19    17    18    1
    20    17    31   ar
    21    18    19    2
    22    18    20   am
    23    20    21    1
    24    21    22   am
    25    22    23    2
    26    22    24    1
    27    24    25   ar
    28    24    29   ar
    29    25    26   ar
    30    26    27   ar
    31    27    28   ar
    32    28    29   ar
    33    29    30    1
    34     1    32    1
    35     1    33    1
    36     5    34    1
    37     6    35    1
    38     7    36    1
    39    14    37    1
    40    15    38    1
    41    16    39    1
    42    20    40    1
    43    21    41    1
    44    25    42    1
    45    26    43    1
    46    27    44    1
    47    28    45    1
    48    31    46    1
@<TRIPOS>MOLECULE
../data/bude_mols_rdkit_confs_charged/molecule_88.pdb
 46 48 0 0 0
SMALL
GASTEIGER

@<TRIPOS>ATOM
      1  N1         7.1650   -1.2920   -0.0160 N.pl3   1  UNL1       -0.3567
      2  C1         6.3720   -0.1420   -0.2650 C.ar    1  UNL1        0.0457
      3  C2         6.9380    1.1160   -0.0980 C.ar    1  UNL1        0.1427
      4  F1         8.2300    1.2560    0.2960 F       1  UNL1       -0.2036
      5  C3         6.2220    2.2740   -0.3250 C.ar    1  UNL1       -0.0247
      6  C4         4.9000    2.1900   -0.7300 C.ar    1  UNL1       -0.0601
      7  C5         4.3400    0.9380   -0.8930 C.ar    1  UNL1       -0.0743
      8  C6         5.0570   -0.2080   -0.6670 C.ar    1  UNL1       -0.1053
      9  N2         4.4740   -1.5130   -0.8410 N.pl3   1  UNL1       -0.5353
     10  S1         3.6820   -2.2880    0.4910 S.O2    1  UNL1       -0.0589
     11  O1         4.3220   -3.6650    0.6040 O.2     1  UNL1       -0.1842
     12  O2         3.9080   -1.5770    1.7790 O.2     1  UNL1       -0.1842
     13  C7         1.9840   -2.4680    0.1330 C.ar    1  UNL1        0.0733
     14  C8         1.5450   -3.6750   -0.4160 C.ar    1  UNL1       -0.0382
     15  C9         0.2170   -3.8490   -0.7160 C.ar    1  UNL1       -0.0593
     16  C10       -0.6650   -2.8190   -0.4690 C.ar    1  UNL1       -0.0495
     17  C11       -0.2780   -1.6100    0.0700 C.ar    1  UNL1        0.0399
     18  C12       -1.2180   -0.5110    0.3290 C.2     1  UNL1        0.2602
     19  O3        -0.7560    0.5730    0.7400 O.2     1  UNL1       -0.2687
     20  N3        -2.6020   -0.6460    0.1290 N.am    1  UNL1       -0.2301
     21  N4        -3.4670    0.4400    0.3870 N.am    1  UNL1       -0.2300
     22  C13       -4.8300    0.3750    0.0590 C.2     1  UNL1        0.2629
     23  O4        -5.2210   -0.7280   -0.4760 O.2     1  UNL1       -0.2686
     24  C14       -5.7970    1.4370    0.2760 C.ar    1  UNL1        0.0733
     25  C15       -7.1550    1.2040    0.0160 C.ar    1  UNL1       -0.0468
     26  C16       -8.1360    2.1450    0.1950 C.ar    1  UNL1       -0.0609
     27  C17       -7.8100    3.4140    0.6570 C.ar    1  UNL1       -0.0590
     28  C18       -6.4890    3.6480    0.9120 C.ar    1  UNL1       -0.0257
     29  C19       -5.4820    2.6860    0.7300 C.ar    1  UNL1        0.1355
     30  F2        -4.1980    3.0410    1.0150 F       1  UNL1       -0.2047
     31  C20        1.0710   -1.4700    0.3620 C.ar    1  UNL1       -0.0261
     32 H           8.1017   -1.1915    0.2700 H       1  UNL1        0.1424
     33 H           6.7786   -2.1904   -0.1293 H       1  UNL1        0.1424
     34 H           6.6681    3.1953   -0.1940 H       1  UNL1        0.0647
     35 H           4.3464    3.0430   -0.9058 H       1  UNL1        0.0618
     36 H           3.3554    0.8634   -1.1930 H       1  UNL1        0.0606
     37 H           2.2189   -4.4356   -0.5960 H       1  UNL1        0.0636
     38 H          -0.1163   -4.7380   -1.1206 H       1  UNL1        0.0618
     39 H          -1.6615   -2.9590   -0.6981 H       1  UNL1        0.0625
     40 H          -2.9701   -1.5007   -0.1922 H       1  UNL1        0.1731
     41 H          -3.1079    1.2564    0.8039 H       1  UNL1        0.1731
     42 H          -7.4317    0.2718   -0.3295 H       1  UNL1        0.0626
     43 H          -9.1189    1.9101   -0.0140 H       1  UNL1        0.0618
     44 H          -8.5281    4.1413    0.7999 H       1  UNL1        0.0618
     45 H          -6.2160    4.5816    1.2569 H       1  UNL1        0.0646
     46 H           1.4007   -0.5801    0.7674 H       1  UNL1        0.0644
@<TRIPOS>UNITY_ATOM_ATTR
9 1
charge -1
@<TRIPOS>BOND
     1     1     2    1
     2     2     3   ar
     3     2     8   ar
     4     3     4    1
     5     3     5   ar
     6     5     6   ar
     7     6     7   ar
     8     7     8   ar
     9     8     9    1
    10     9    10    1
    11    10    11    2
    12    10    12    2
    13    10    13    1
    14    13    14   ar
    15    13    31   ar
    16    14    15   ar
    17    15    16   ar
    18    16    17   ar
    19    17    18    1
    20    17    31   ar
    21    18    19    2
    22    18    20   am
    23    20    21    1
    24    21    22   am
    25    22    23    2
    26    22    24    1
    27    24    25   ar
    28    24    29   ar
    29    25    26   ar
    30    26    27   ar
    31    27    28   ar
    32    28    29   ar
    33    29    30    1
    34     1    32    1
    35     1    33    1
    36     5    34    1
    37     6    35    1
    38     7    36    1
    39    14    37    1
    40    15    38    1
    41    16    39    1
    42    20    40    1
    43    21    41    1
    44    25    42    1
    45    26    43    1
    46    27    44    1
    47    28    45    1
    48    31    46    1
@<TRIPOS>MOLECULE
../data/bude_mols_rdkit_confs_charged/molecule_88.pdb
 46 48 0 0 0
SMALL
GASTEIGER

@<TRIPOS>ATOM
      1  N1        -5.1820   -1.5660    0.2090 N.pl3   1  UNL1       -0.3567
      2  C1        -5.7770   -0.3990   -0.2950 C.ar    1  UNL1        0.0457
      3  C2        -6.5460   -0.5150   -1.4360 C.ar    1  UNL1        0.1427
      4  F1        -6.7440   -1.7150   -2.0480 F       1  UNL1       -0.2036
      5  C3        -7.1150    0.6100   -1.9510 C.ar    1  UNL1       -0.0247
      6  C4        -6.9370    1.8350   -1.3590 C.ar    1  UNL1       -0.0601
      7  C5        -6.1660    1.9370   -0.2220 C.ar    1  UNL1       -0.0743
      8  C6        -5.5590    0.8090    0.3500 C.ar    1  UNL1       -0.1053
      9  N2        -4.8520    0.9470    1.5280 N.pl3   1  UNL1       -0.5353
     10  S1        -3.2410    1.2100    1.8330 S.O2    1  UNL1       -0.0589
     11  O1        -2.7920    2.5320    1.1880 O.2     1  UNL1       -0.1842
     12  O2        -2.9960    1.3810    3.3310 O.2     1  UNL1       -0.1842
     13  C7        -2.1290   -0.0160    1.2920 C.ar    1  UNL1        0.0733
     14  C8        -2.2400   -1.3240    1.7560 C.ar    1  UNL1       -0.0382
     15  C9        -1.3020   -2.2680    1.4070 C.ar    1  UNL1       -0.0593
     16  C10       -0.2160   -1.9450    0.5860 C.ar    1  UNL1       -0.0495
     17  C11       -0.1150   -0.6550    0.1370 C.ar    1  UNL1        0.0399
     18  C12        1.0940   -0.3070   -0.6510 C.2     1  UNL1        0.2602
     19  O3         1.0850    0.0580   -1.8230 O.2     1  UNL1       -0.2687
     20  N3         2.3050   -0.4270    0.0770 N.am    1  UNL1       -0.2301
     21  N4         3.5470   -0.1300   -0.4870 N.am    1  UNL1       -0.2300
     22  C13        4.7280   -0.1550    0.2730 C.2     1  UNL1        0.2629
     23  O4         4.5880   -0.4830    1.5240 O.2     1  UNL1       -0.2686
     24  C14        6.0540    0.1370   -0.1820 C.ar    1  UNL1        0.0733
     25  C15        7.1300    0.0040    0.6970 C.ar    1  UNL1       -0.0468
     26  C16        8.4340    0.2670    0.3490 C.ar    1  UNL1       -0.0609
     27  C17        8.7300    0.6830   -0.9190 C.ar    1  UNL1       -0.0590
     28  C18        7.7010    0.8270   -1.8170 C.ar    1  UNL1       -0.0257
     29  C19        6.3760    0.5540   -1.4420 C.ar    1  UNL1        0.1355
     30  F2         5.4260    0.7260   -2.3900 F       1  UNL1       -0.2047
     31  C20       -1.0610    0.3040    0.4820 C.ar    1  UNL1       -0.0261
     32 H          -5.3307   -2.4285   -0.2418 H       1  UNL1        0.1424
     33 H          -4.6160   -1.5221    1.0133 H       1  UNL1        0.1424
     34 H          -7.6918    0.5398   -2.8039 H       1  UNL1        0.0647
     35 H          -7.3784    2.6756   -1.7635 H       1  UNL1        0.0618
     36 H          -6.0323    2.8611    0.2175 H       1  UNL1        0.0606
     37 H          -3.0304   -1.5869    2.3652 H       1  UNL1        0.0636
     38 H          -1.4014   -3.2335    1.7577 H       1  UNL1        0.0618
     39 H           0.4861   -2.6557    0.3272 H       1  UNL1        0.0625
     40 H           2.2686   -0.7304    1.0129 H       1  UNL1        0.1731
     41 H           3.5964    0.1030   -1.4422 H       1  UNL1        0.1731
     42 H           6.9362   -0.3089    1.6611 H       1  UNL1        0.0626
     43 H           9.1880    0.1505    1.0440 H       1  UNL1        0.0618
     44 H           9.7039    0.8841   -1.1950 H       1  UNL1        0.0618
     45 H           7.9043    1.1397   -2.7792 H       1  UNL1        0.0646
     46 H          -0.9620    1.2679    0.1268 H       1  UNL1        0.0644
@<TRIPOS>UNITY_ATOM_ATTR
9 1
charge -1
@<TRIPOS>BOND
     1     1     2    1
     2     2     3   ar
     3     2     8   ar
     4     3     4    1
     5     3     5   ar
     6     5     6   ar
     7     6     7   ar
     8     7     8   ar
     9     8     9    1
    10     9    10    1
    11    10    11    2
    12    10    12    2
    13    10    13    1
    14    13    14   ar
    15    13    31   ar
    16    14    15   ar
    17    15    16   ar
    18    16    17   ar
    19    17    18    1
    20    17    31   ar
    21    18    19    2
    22    18    20   am
    23    20    21    1
    24    21    22   am
    25    22    23    2
    26    22    24    1
    27    24    25   ar
    28    24    29   ar
    29    25    26   ar
    30    26    27   ar
    31    27    28   ar
    32    28    29   ar
    33    29    30    1
    34     1    32    1
    35     1    33    1
    36     5    34    1
    37     6    35    1
    38     7    36    1
    39    14    37    1
    40    15    38    1
    41    16    39    1
    42    20    40    1
    43    21    41    1
    44    25    42    1
    45    26    43    1
    46    27    44    1
    47    28    45    1
    48    31    46    1
@<TRIPOS>MOLECULE
../data/bude_mols_rdkit_confs_charged/molecule_88.pdb
 46 48 0 0 0
SMALL
GASTEIGER

@<TRIPOS>ATOM
      1  N1        -6.5500    1.2810   -2.0680 N.pl3   1  UNL1       -0.3567
      2  C1        -6.2270    0.2840   -1.0980 C.ar    1  UNL1        0.0457
      3  C2        -7.1960   -0.1380   -0.1980 C.ar    1  UNL1        0.1427
      4  F1        -8.4420    0.4090   -0.2310 F       1  UNL1       -0.2036
      5  C3        -6.9110   -1.1070    0.7380 C.ar    1  UNL1       -0.0247
      6  C4        -5.6390   -1.6350    0.7430 C.ar    1  UNL1       -0.0601
      7  C5        -4.6660   -1.2200   -0.1520 C.ar    1  UNL1       -0.0743
      8  C6        -4.9410   -0.2430   -1.1000 C.ar    1  UNL1       -0.1053
      9  N2        -4.0020    0.2490   -2.0400 N.pl3   1  UNL1       -0.5353
     10  S1        -2.9800    1.5870   -1.6620 S.O2    1  UNL1       -0.0589
     11  O1        -3.7370    2.8290   -1.3210 O.2     1  UNL1       -0.1842
     12  O2        -2.1350    1.8330   -2.9010 O.2     1  UNL1       -0.1842
     13  C7        -1.9780    1.1390   -0.3170 C.ar    1  UNL1        0.0733
     14  C8        -2.4220    1.1760    0.9630 C.ar    1  UNL1       -0.0382
     15  C9        -1.6010    0.8260    2.0420 C.ar    1  UNL1       -0.0593
     16  C10       -0.2950    0.4290    1.7950 C.ar    1  UNL1       -0.0495
     17  C11        0.1390    0.3980    0.5020 C.ar    1  UNL1        0.0399
     18  C12        1.4990   -0.0030    0.1680 C.2     1  UNL1        0.2602
     19  O3         2.1180    0.6710   -0.7430 O.2     1  UNL1       -0.2687
     20  N3         2.2190   -1.0790    0.7540 N.am    1  UNL1       -0.2301
     21  N4         3.5440   -1.3340    0.2970 N.am    1  UNL1       -0.2300
     22  C13        4.5390   -0.4060    0.5880 C.2     1  UNL1        0.2629
     23  O4         4.1650    0.6200    1.2850 O.2     1  UNL1       -0.2686
     24  C14        5.9240   -0.4180    0.2230 C.ar    1  UNL1        0.0733
     25  C15        6.7970    0.4640    0.8060 C.ar    1  UNL1       -0.0468
     26  C16        8.1340    0.5020    0.4830 C.ar    1  UNL1       -0.0609
     27  C17        8.5790   -0.3900   -0.4610 C.ar    1  UNL1       -0.0590
     28  C18        7.7350   -1.2860   -1.0640 C.ar    1  UNL1       -0.0257
     29  C19        6.3880   -1.2980   -0.7150 C.ar    1  UNL1        0.1355
     30  F2         5.6130   -2.2170   -1.3640 F       1  UNL1       -0.2047
     31  C20       -0.6780    0.7450   -0.5750 C.ar    1  UNL1       -0.0261
     32 H          -7.4533    1.6720   -2.0900 H       1  UNL1        0.1424
     33 H          -5.8694    1.5773   -2.7147 H       1  UNL1        0.1424
     34 H          -7.6249   -1.4261    1.4115 H       1  UNL1        0.0647
     35 H          -5.4030   -2.3629    1.4354 H       1  UNL1        0.0618
     36 H          -3.7251   -1.6422   -0.1137 H       1  UNL1        0.0606
     37 H          -3.3936    1.4707    1.1478 H       1  UNL1        0.0636
     38 H          -1.9626    0.8629    3.0079 H       1  UNL1        0.0618
     39 H           0.3327    0.1637    2.5700 H       1  UNL1        0.0625
     40 H           1.8124   -1.6342    1.4580 H       1  UNL1        0.1731
     41 H           3.7512   -2.1496   -0.2139 H       1  UNL1        0.1731
     42 H           6.4379    1.1240    1.5135 H       1  UNL1        0.0626
     43 H           8.7761    1.1736    0.9321 H       1  UNL1        0.0618
     44 H           9.5769   -0.3858   -0.7240 H       1  UNL1        0.0618
     45 H           8.0954   -1.9460   -1.7707 H       1  UNL1        0.0646
     46 H          -0.3199    0.7083   -1.5422 H       1  UNL1        0.0644
@<TRIPOS>UNITY_ATOM_ATTR
9 1
charge -1
@<TRIPOS>BOND
     1     1     2    1
     2     2     3   ar
     3     2     8   ar
     4     3     4    1
     5     3     5   ar
     6     5     6   ar
     7     6     7   ar
     8     7     8   ar
     9     8     9    1
    10     9    10    1
    11    10    11    2
    12    10    12    2
    13    10    13    1
    14    13    14   ar
    15    13    31   ar
    16    14    15   ar
    17    15    16   ar
    18    16    17   ar
    19    17    18    1
    20    17    31   ar
    21    18    19    2
    22    18    20   am
    23    20    21    1
    24    21    22   am
    25    22    23    2
    26    22    24    1
    27    24    25   ar
    28    24    29   ar
    29    25    26   ar
    30    26    27   ar
    31    27    28   ar
    32    28    29   ar
    33    29    30    1
    34     1    32    1
    35     1    33    1
    36     5    34    1
    37     6    35    1
    38     7    36    1
    39    14    37    1
    40    15    38    1
    41    16    39    1
    42    20    40    1
    43    21    41    1
    44    25    42    1
    45    26    43    1
    46    27    44    1
    47    28    45    1
    48    31    46    1
@<TRIPOS>MOLECULE
../data/bude_mols_rdkit_confs_charged/molecule_88.pdb
 46 48 0 0 0
SMALL
GASTEIGER

@<TRIPOS>ATOM
      1  N1         6.7240    0.4790    1.6280 N.pl3   1  UNL1       -0.3567
      2  C1         6.0140    0.8870    0.4630 C.ar    1  UNL1        0.0457
      3  C2         6.8110    1.2170   -0.6430 C.ar    1  UNL1        0.1427
      4  F1         8.1620    1.1420   -0.5660 F       1  UNL1       -0.2036
      5  C3         6.2340    1.6120   -1.8050 C.ar    1  UNL1       -0.0247
      6  C4         4.8630    1.6900   -1.9000 C.ar    1  UNL1       -0.0601
      7  C5         4.0890    1.3610   -0.7970 C.ar    1  UNL1       -0.0743
      8  C6         4.6460    0.9570    0.3960 C.ar    1  UNL1       -0.1053
      9  N2         3.8470    0.6490    1.4790 N.pl3   1  UNL1       -0.5353
     10  S1         3.1640   -0.8040    1.9800 S.O2    1  UNL1       -0.0589
     11  O1         4.1810   -1.8440    2.3740 O.2     1  UNL1       -0.1842
     12  O2         2.3790   -0.5300    3.2590 O.2     1  UNL1       -0.1842
     13  C7         2.0480   -1.5370    0.8650 C.ar    1  UNL1        0.0733
     14  C8         2.4400   -2.5040   -0.0550 C.ar    1  UNL1       -0.0382
     15  C9         1.5080   -3.0350   -0.8870 C.ar    1  UNL1       -0.0593
     16  C10        0.1920   -2.6570   -0.8600 C.ar    1  UNL1       -0.0495
     17  C11       -0.2230   -1.6870    0.0550 C.ar    1  UNL1        0.0399
     18  C12       -1.6220   -1.3300    0.0680 C.2     1  UNL1        0.2602
     19  O3        -2.5220   -2.0730   -0.3950 O.2     1  UNL1       -0.2687
     20  N3        -2.0030   -0.0840    0.6280 N.am    1  UNL1       -0.2301
     21  N4        -3.3590    0.3240    0.6790 N.am    1  UNL1       -0.2300
     22  C13       -4.2090    0.3180   -0.4290 C.2     1  UNL1        0.2629
     23  O4        -3.7400   -0.0790   -1.5590 O.2     1  UNL1       -0.2686
     24  C14       -5.5930    0.7340   -0.3590 C.ar    1  UNL1        0.0733
     25  C15       -6.4310    0.2980   -1.4070 C.ar    1  UNL1       -0.0468
     26  C16       -7.7510    0.6310   -1.3550 C.ar    1  UNL1       -0.0609
     27  C17       -8.2820    1.3780   -0.3130 C.ar    1  UNL1       -0.0590
     28  C18       -7.4560    1.7930    0.6930 C.ar    1  UNL1       -0.0257
     29  C19       -6.1030    1.4680    0.6660 C.ar    1  UNL1        0.1355
     30  F2        -5.3340    1.9440    1.7000 F       1  UNL1       -0.2047
     31  C20        0.7280   -1.1570    0.8930 C.ar    1  UNL1       -0.0261
     32 H           7.7080    0.4475    1.6190 H       1  UNL1        0.1424
     33 H           6.2309    0.2285    2.4425 H       1  UNL1        0.1424
     34 H           6.8224    1.8540   -2.6175 H       1  UNL1        0.0647
     35 H           4.4166    1.9895   -2.7809 H       1  UNL1        0.0618
     36 H           3.0615    1.4209   -0.8728 H       1  UNL1        0.0606
     37 H           3.4235   -2.8127   -0.1042 H       1  UNL1        0.0636
     38 H           1.8031   -3.7526   -1.5674 H       1  UNL1        0.0618
     39 H          -0.4864   -3.0848   -1.5095 H       1  UNL1        0.0625
     40 H          -1.3083    0.5121    0.9902 H       1  UNL1        0.1731
     41 H          -3.7215    0.6282    1.5423 H       1  UNL1        0.1731
     42 H          -6.0546   -0.2576   -2.1910 H       1  UNL1        0.0626
     43 H          -8.3757    0.3179   -2.1144 H       1  UNL1        0.0618
     44 H          -9.2860    1.6165   -0.2982 H       1  UNL1        0.0618
     45 H          -7.8363    2.3489    1.4749 H       1  UNL1        0.0646
     46 H           0.4372   -0.4397    1.5756 H       1  UNL1        0.0644
@<TRIPOS>UNITY_ATOM_ATTR
9 1
charge -1
@<TRIPOS>BOND
     1     1     2    1
     2     2     3   ar
     3     2     8   ar
     4     3     4    1
     5     3     5   ar
     6     5     6   ar
     7     6     7   ar
     8     7     8   ar
     9     8     9    1
    10     9    10    1
    11    10    11    2
    12    10    12    2
    13    10    13    1
    14    13    14   ar
    15    13    31   ar
    16    14    15   ar
    17    15    16   ar
    18    16    17   ar
    19    17    18    1
    20    17    31   ar
    21    18    19    2
    22    18    20   am
    23    20    21    1
    24    21    22   am
    25    22    23    2
    26    22    24    1
    27    24    25   ar
    28    24    29   ar
    29    25    26   ar
    30    26    27   ar
    31    27    28   ar
    32    28    29   ar
    33    29    30    1
    34     1    32    1
    35     1    33    1
    36     5    34    1
    37     6    35    1
    38     7    36    1
    39    14    37    1
    40    15    38    1
    41    16    39    1
    42    20    40    1
    43    21    41    1
    44    25    42    1
    45    26    43    1
    46    27    44    1
    47    28    45    1
    48    31    46    1
@<TRIPOS>MOLECULE
../data/bude_mols_rdkit_confs_charged/molecule_88.pdb
 46 48 0 0 0
SMALL
GASTEIGER

@<TRIPOS>ATOM
      1  N1        -6.5110    0.0000   -1.3650 N.pl3   1  UNL1       -0.3567
      2  C1        -5.5290   -0.9900   -1.0700 C.ar    1  UNL1        0.0457
      3  C2        -5.6610   -2.2530   -1.6250 C.ar    1  UNL1        0.1427
      4  F1        -6.6900   -2.5930   -2.4410 F       1  UNL1       -0.2036
      5  C3        -4.7090   -3.2210   -1.3410 C.ar    1  UNL1       -0.0247
      6  C4        -3.6640   -2.8750   -0.5110 C.ar    1  UNL1       -0.0601
      7  C5        -3.5410   -1.6000    0.0420 C.ar    1  UNL1       -0.0743
      8  C6        -4.4880   -0.6580   -0.2470 C.ar    1  UNL1       -0.1053
      9  N2        -4.3970    0.6350    0.2870 N.pl3   1  UNL1       -0.5353
     10  S1        -3.5680    1.9370   -0.4810 S.O2    1  UNL1       -0.0589
     11  O1        -4.5170    3.1180   -0.5030 O.2     1  UNL1       -0.1842
     12  O2        -3.2360    1.6320   -1.9130 O.2     1  UNL1       -0.1842
     13  C7        -2.1370    2.4010    0.4110 C.ar    1  UNL1        0.0733
     14  C8        -2.2510    3.3860    1.3710 C.ar    1  UNL1       -0.0382
     15  C9        -1.1900    3.8290    2.1320 C.ar    1  UNL1       -0.0593
     16  C10        0.0410    3.2380    1.9000 C.ar    1  UNL1       -0.0495
     17  C11        0.1810    2.2400    0.9340 C.ar    1  UNL1        0.0399
     18  C12        1.5230    1.6860    0.7700 C.2     1  UNL1        0.2602
     19  O3         2.3070    2.2810   -0.0160 O.2     1  UNL1       -0.2687
     20  N3         1.9910    0.5350    1.4330 N.am    1  UNL1       -0.2301
     21  N4         3.2720    0.0000    1.2810 N.am    1  UNL1       -0.2300
     22  C13        3.6940   -0.4340    0.0230 C.2     1  UNL1        0.2629
     23  O4         2.8560   -0.3060   -0.9230 O.2     1  UNL1       -0.2686
     24  C14        4.9820   -1.0020   -0.2660 C.ar    1  UNL1        0.0733
     25  C15        5.2400   -1.4080   -1.5840 C.ar    1  UNL1       -0.0468
     26  C16        6.4370   -1.9650   -1.9690 C.ar    1  UNL1       -0.0609
     27  C17        7.4430   -2.1390   -1.0290 C.ar    1  UNL1       -0.0590
     28  C18        7.2330   -1.7550    0.2720 C.ar    1  UNL1       -0.0257
     29  C19        6.0060   -1.1930    0.6300 C.ar    1  UNL1        0.1355
     30  F2         5.8270   -0.8250    1.9120 F       1  UNL1       -0.2047
     31  C20       -0.9090    1.8400    0.2080 C.ar    1  UNL1       -0.0261
     32 H          -7.2682   -0.2183   -1.9551 H       1  UNL1        0.1424
     33 H          -6.4321    0.9021   -0.9787 H       1  UNL1        0.1424
     34 H          -4.7807   -4.1706   -1.7386 H       1  UNL1        0.0647
     35 H          -2.9473   -3.5842   -0.2909 H       1  UNL1        0.0618
     36 H          -2.7467   -1.3716    0.6601 H       1  UNL1        0.0606
     37 H          -3.1776    3.8127    1.5272 H       1  UNL1        0.0636
     38 H          -1.3078    4.5679    2.8427 H       1  UNL1        0.0618
     39 H           0.8630    3.5385    2.4468 H       1  UNL1        0.0625
     40 H           1.3724    0.0758    2.0460 H       1  UNL1        0.1731
     41 H           3.8741   -0.0707    2.0567 H       1  UNL1        0.1731
     42 H           4.5012   -1.2835   -2.2937 H       1  UNL1        0.0626
     43 H           6.5860   -2.2513   -2.9492 H       1  UNL1        0.0618
     44 H           8.3454   -2.5554   -1.3070 H       1  UNL1        0.0618
     45 H           7.9747   -1.8804    0.9785 H       1  UNL1        0.0646
     46 H          -0.8003    1.1017   -0.5049 H       1  UNL1        0.0644
@<TRIPOS>UNITY_ATOM_ATTR
9 1
charge -1
@<TRIPOS>BOND
     1     1     2    1
     2     2     3   ar
     3     2     8   ar
     4     3     4    1
     5     3     5   ar
     6     5     6   ar
     7     6     7   ar
     8     7     8   ar
     9     8     9    1
    10     9    10    1
    11    10    11    2
    12    10    12    2
    13    10    13    1
    14    13    14   ar
    15    13    31   ar
    16    14    15   ar
    17    15    16   ar
    18    16    17   ar
    19    17    18    1
    20    17    31   ar
    21    18    19    2
    22    18    20   am
    23    20    21    1
    24    21    22   am
    25    22    23    2
    26    22    24    1
    27    24    25   ar
    28    24    29   ar
    29    25    26   ar
    30    26    27   ar
    31    27    28   ar
    32    28    29   ar
    33    29    30    1
    34     1    32    1
    35     1    33    1
    36     5    34    1
    37     6    35    1
    38     7    36    1
    39    14    37    1
    40    15    38    1
    41    16    39    1
    42    20    40    1
    43    21    41    1
    44    25    42    1
    45    26    43    1
    46    27    44    1
    47    28    45    1
    48    31    46    1
@<TRIPOS>MOLECULE
../data/bude_mols_rdkit_confs_charged/molecule_88.pdb
 46 48 0 0 0
SMALL
GASTEIGER

@<TRIPOS>ATOM
      1  N1        -4.3280    1.3730    0.8310 N.pl3   1  UNL1       -0.3567
      2  C1        -4.3970    0.4100   -0.2180 C.ar    1  UNL1        0.0457
      3  C2        -4.5730   -0.9300    0.1560 C.ar    1  UNL1        0.1427
      4  F1        -4.6690   -1.2310    1.4700 F       1  UNL1       -0.2036
      5  C3        -4.6560   -1.8950   -0.8300 C.ar    1  UNL1       -0.0247
      6  C4        -4.5600   -1.4860   -2.1420 C.ar    1  UNL1       -0.0601
      7  C5        -4.3880   -0.1840   -2.5460 C.ar    1  UNL1       -0.0743
      8  C6        -4.3040    0.7920   -1.5230 C.ar    1  UNL1       -0.1053
      9  N2        -4.0970    2.1220   -1.8980 N.pl3   1  UNL1       -0.5353
     10  S1        -2.6100    2.9000   -2.1500 S.O2    1  UNL1       -0.0589
     11  O1        -1.8460    2.3300   -3.3140 O.2     1  UNL1       -0.1842
     12  O2        -2.8660    4.3570   -2.5040 O.2     1  UNL1       -0.1842
     13  C7        -1.6710    2.8810   -0.6890 C.ar    1  UNL1        0.0733
     14  C8        -1.8150    3.8650    0.2470 C.ar    1  UNL1       -0.0382
     15  C9        -1.0640    3.8630    1.4180 C.ar    1  UNL1       -0.0593
     16  C10       -0.1670    2.8570    1.6340 C.ar    1  UNL1       -0.0495
     17  C11        0.0120    1.8430    0.7180 C.ar    1  UNL1        0.0399
     18  C12        0.9640    0.7440    0.9080 C.2     1  UNL1        0.2602
     19  O3         1.3650    0.4470    2.0490 O.2     1  UNL1       -0.2687
     20  N3         1.4250    0.0220   -0.2090 N.am    1  UNL1       -0.2301
     21  N4         2.3410   -1.0590   -0.1370 N.am    1  UNL1       -0.2300
     22  C13        3.6020   -0.9540    0.4410 C.2     1  UNL1        0.2629
     23  O4         3.9290    0.1770    0.9360 O.2     1  UNL1       -0.2686
     24  C14        4.5700   -2.0370    0.5250 C.ar    1  UNL1        0.0733
     25  C15        5.5690   -1.9100    1.4580 C.ar    1  UNL1       -0.0468
     26  C16        6.5180   -2.8860    1.6320 C.ar    1  UNL1       -0.0609
     27  C17        6.4660   -4.0290    0.8460 C.ar    1  UNL1       -0.0590
     28  C18        5.4710   -4.1480   -0.0800 C.ar    1  UNL1       -0.0257
     29  C19        4.5190   -3.1650   -0.2520 C.ar    1  UNL1        0.1355
     30  F2         3.5600   -3.3070   -1.1870 F       1  UNL1       -0.2047
     31  C20       -0.7510    1.8840   -0.4240 C.ar    1  UNL1       -0.0261
     32 H          -4.3965    1.0842    1.7697 H       1  UNL1        0.1424
     33 H          -4.2119    2.3269    0.6167 H       1  UNL1        0.1424
     34 H          -4.7858   -2.8905   -0.5909 H       1  UNL1        0.0647
     35 H          -4.6218   -2.2101   -2.8747 H       1  UNL1        0.0618
     36 H          -4.3233    0.0699   -3.5442 H       1  UNL1        0.0606
     37 H          -2.4939    4.6246    0.0825 H       1  UNL1        0.0636
     38 H          -1.1837    4.6139    2.1158 H       1  UNL1        0.0618
     39 H           0.3897    2.8557    2.5029 H       1  UNL1        0.0625
     40 H           1.0903    0.2840   -1.0970 H       1  UNL1        0.1731
     41 H           2.0707   -1.9269   -0.5150 H       1  UNL1        0.1731
     42 H           5.6073   -1.0603    2.0425 H       1  UNL1        0.0626
     43 H           7.2613   -2.7716    2.3387 H       1  UNL1        0.0618
     44 H           7.1684   -4.7764    0.9602 H       1  UNL1        0.0618
     45 H           5.4297   -4.9957   -0.6671 H       1  UNL1        0.0646
     46 H          -0.6310    1.1315   -1.1199 H       1  UNL1        0.0644
@<TRIPOS>UNITY_ATOM_ATTR
9 1
charge -1
@<TRIPOS>BOND
     1     1     2    1
     2     2     3   ar
     3     2     8   ar
     4     3     4    1
     5     3     5   ar
     6     5     6   ar
     7     6     7   ar
     8     7     8   ar
     9     8     9    1
    10     9    10    1
    11    10    11    2
    12    10    12    2
    13    10    13    1
    14    13    14   ar
    15    13    31   ar
    16    14    15   ar
    17    15    16   ar
    18    16    17   ar
    19    17    18    1
    20    17    31   ar
    21    18    19    2
    22    18    20   am
    23    20    21    1
    24    21    22   am
    25    22    23    2
    26    22    24    1
    27    24    25   ar
    28    24    29   ar
    29    25    26   ar
    30    26    27   ar
    31    27    28   ar
    32    28    29   ar
    33    29    30    1
    34     1    32    1
    35     1    33    1
    36     5    34    1
    37     6    35    1
    38     7    36    1
    39    14    37    1
    40    15    38    1
    41    16    39    1
    42    20    40    1
    43    21    41    1
    44    25    42    1
    45    26    43    1
    46    27    44    1
    47    28    45    1
    48    31    46    1
@<TRIPOS>MOLECULE
../data/bude_mols_rdkit_confs_charged/molecule_88.pdb
 46 48 0 0 0
SMALL
GASTEIGER

@<TRIPOS>ATOM
      1  N1        -4.3790   -1.1900   -1.2380 N.pl3   1  UNL1       -0.3567
      2  C1        -4.6540    0.0130   -0.5360 C.ar    1  UNL1        0.0457
      3  C2        -4.7760    1.2340   -1.1730 C.ar    1  UNL1        0.1427
      4  F1        -4.6370    1.3200   -2.5290 F       1  UNL1       -0.2036
      5  C3        -5.0430    2.4210   -0.5120 C.ar    1  UNL1       -0.0247
      6  C4        -5.1980    2.3880    0.8680 C.ar    1  UNL1       -0.0601
      7  C5        -5.0830    1.1900    1.5290 C.ar    1  UNL1       -0.0743
      8  C6        -4.8160    0.0200    0.8530 C.ar    1  UNL1       -0.1053
      9  N2        -4.7130   -1.2090    1.5080 N.pl3   1  UNL1       -0.5353
     10  S1        -3.3270   -1.9460    2.1540 S.O2    1  UNL1       -0.0589
     11  O1        -2.6740   -1.0710    3.2130 O.2     1  UNL1       -0.1842
     12  O2        -3.7850   -3.2500    2.7990 O.2     1  UNL1       -0.1842
     13  C7        -2.1050   -2.2950    0.9630 C.ar    1  UNL1        0.0733
     14  C8        -2.1790   -3.4560    0.1980 C.ar    1  UNL1       -0.0382
     15  C9        -1.1720   -3.6560   -0.7260 C.ar    1  UNL1       -0.0593
     16  C10       -0.1460   -2.7890   -0.9070 C.ar    1  UNL1       -0.0495
     17  C11       -0.0660   -1.6170   -0.1380 C.ar    1  UNL1        0.0399
     18  C12        1.0460   -0.7180   -0.3800 C.2     1  UNL1        0.2602
     19  O3         1.5920   -0.7090   -1.5300 O.2     1  UNL1       -0.2687
     20  N3         1.5340    0.1430    0.6310 N.am    1  UNL1       -0.2301
     21  N4         2.6250    1.0180    0.3860 N.am    1  UNL1       -0.2300
     22  C13        3.8290    0.4580   -0.0920 C.2     1  UNL1        0.2629
     23  O4         3.8510   -0.8130   -0.2650 O.2     1  UNL1       -0.2686
     24  C14        5.0390    1.1720   -0.4100 C.ar    1  UNL1        0.0733
     25  C15        6.1020    0.5080   -1.0400 C.ar    1  UNL1       -0.0468
     26  C16        7.2720    1.1270   -1.3920 C.ar    1  UNL1       -0.0609
     27  C17        7.3970    2.4880   -1.1030 C.ar    1  UNL1       -0.0590
     28  C18        6.3970    3.1940   -0.4890 C.ar    1  UNL1       -0.0257
     29  C19        5.2210    2.5000   -0.1530 C.ar    1  UNL1        0.1355
     30  F2         4.2930    3.2550    0.4530 F       1  UNL1       -0.2047
     31  C20       -1.0610   -1.4250    0.7700 C.ar    1  UNL1       -0.0261
     32 H          -4.2682   -1.1748   -2.2161 H       1  UNL1        0.1424
     33 H          -4.2991   -2.0394   -0.7467 H       1  UNL1        0.1424
     34 H          -5.1249    3.3087   -1.0320 H       1  UNL1        0.0647
     35 H          -5.3975    3.2550    1.3911 H       1  UNL1        0.0618
     36 H          -5.1991    1.1657    2.5542 H       1  UNL1        0.0606
     37 H          -2.9483   -4.1337    0.3156 H       1  UNL1        0.0636
     38 H          -1.2023   -4.5080   -1.3075 H       1  UNL1        0.0618
     39 H           0.5792   -2.9911   -1.6128 H       1  UNL1        0.0625
     40 H           1.1099    0.1353    1.5194 H       1  UNL1        0.1731
     41 H           2.5440    1.9862    0.5448 H       1  UNL1        0.1731
     42 H           5.9972   -0.4972   -1.2487 H       1  UNL1        0.0626
     43 H           8.0340    0.6066   -1.8542 H       1  UNL1        0.0618
     44 H           8.2692    2.9761   -1.3599 H       1  UNL1        0.0618
     45 H           6.5027    4.1992   -0.2804 H       1  UNL1        0.0646
     46 H          -1.0287   -0.5719    1.3498 H       1  UNL1        0.0644
@<TRIPOS>UNITY_ATOM_ATTR
9 1
charge -1
@<TRIPOS>BOND
     1     1     2    1
     2     2     3   ar
     3     2     8   ar
     4     3     4    1
     5     3     5   ar
     6     5     6   ar
     7     6     7   ar
     8     7     8   ar
     9     8     9    1
    10     9    10    1
    11    10    11    2
    12    10    12    2
    13    10    13    1
    14    13    14   ar
    15    13    31   ar
    16    14    15   ar
    17    15    16   ar
    18    16    17   ar
    19    17    18    1
    20    17    31   ar
    21    18    19    2
    22    18    20   am
    23    20    21    1
    24    21    22   am
    25    22    23    2
    26    22    24    1
    27    24    25   ar
    28    24    29   ar
    29    25    26   ar
    30    26    27   ar
    31    27    28   ar
    32    28    29   ar
    33    29    30    1
    34     1    32    1
    35     1    33    1
    36     5    34    1
    37     6    35    1
    38     7    36    1
    39    14    37    1
    40    15    38    1
    41    16    39    1
    42    20    40    1
    43    21    41    1
    44    25    42    1
    45    26    43    1
    46    27    44    1
    47    28    45    1
    48    31    46    1
@<TRIPOS>MOLECULE
../data/bude_mols_rdkit_confs_charged/molecule_88.pdb
 46 48 0 0 0
SMALL
GASTEIGER

@<TRIPOS>ATOM
      1  N1        -5.2070   -1.2300   -0.8420 N.pl3   1  UNL1       -0.3567
      2  C1        -6.0660   -0.1720   -0.4990 C.ar    1  UNL1        0.0457
      3  C2        -7.4430   -0.4080   -0.4090 C.ar    1  UNL1        0.1427
      4  F1        -7.9420   -1.6690   -0.6260 F       1  UNL1       -0.2036
      5  C3        -8.3580    0.5740   -0.1040 C.ar    1  UNL1       -0.0247
      6  C4        -7.8490    1.8570    0.1210 C.ar    1  UNL1       -0.0601
      7  C5        -6.4920    2.1160    0.0380 C.ar    1  UNL1       -0.0743
      8  C6        -5.6110    1.1020   -0.2700 C.ar    1  UNL1       -0.1053
      9  N2        -4.2210    1.4300   -0.3030 N.pl3   1  UNL1       -0.5353
     10  S1        -3.2470    1.3470    1.1150 S.O2    1  UNL1       -0.0589
     11  O1        -4.0720    0.9870    2.3150 O.2     1  UNL1       -0.1842
     12  O2        -2.6080    2.6780    1.4160 O.2     1  UNL1       -0.1842
     13  C7        -2.0130    0.1510    0.9180 C.ar    1  UNL1        0.0733
     14  C8        -2.3170   -1.1820    1.0150 C.ar    1  UNL1       -0.0382
     15  C9        -1.3180   -2.0990    0.8980 C.ar    1  UNL1       -0.0593
     16  C10       -0.0120   -1.7230    0.6870 C.ar    1  UNL1       -0.0495
     17  C11        0.3040   -0.3840    0.5900 C.ar    1  UNL1        0.0399
     18  C12        1.6690    0.0900    0.4070 C.2     1  UNL1        0.2602
     19  O3         1.8670    1.2850   -0.0040 O.2     1  UNL1       -0.2687
     20  N3         2.7460   -0.7530    0.6870 N.am    1  UNL1       -0.2301
     21  N4         4.0430   -0.1910    0.4890 N.am    1  UNL1       -0.2300
     22  C13        5.0190   -0.8200   -0.2870 C.2     1  UNL1        0.2629
     23  O4         4.6830   -1.9380   -0.8150 O.2     1  UNL1       -0.2686
     24  C14        6.3330   -0.3030   -0.5180 C.ar    1  UNL1        0.0733
     25  C15        7.1940   -1.0690   -1.3160 C.ar    1  UNL1       -0.0468
     26  C16        8.4700   -0.6790   -1.6180 C.ar    1  UNL1       -0.0609
     27  C17        8.9800    0.5020   -1.1460 C.ar    1  UNL1       -0.0590
     28  C18        8.1650    1.2740   -0.3650 C.ar    1  UNL1       -0.0257
     29  C19        6.8640    0.8720   -0.0590 C.ar    1  UNL1        0.1355
     30  F2         6.1230    1.6770    0.7080 F       1  UNL1       -0.2047
     31  C20       -0.6890    0.5350    0.7040 C.ar    1  UNL1       -0.0261
     32 H          -5.5731   -2.1304   -0.9983 H       1  UNL1        0.1424
     33 H          -4.2391   -1.0708   -0.9259 H       1  UNL1        0.1424
     34 H          -9.3686    0.3736   -0.0444 H       1  UNL1        0.0647
     35 H          -8.4976    2.6253    0.3534 H       1  UNL1        0.0618
     36 H          -6.1390    3.0709    0.2072 H       1  UNL1        0.0606
     37 H          -3.2901   -1.4862    1.1746 H       1  UNL1        0.0636
     38 H          -1.5465   -3.1028    0.9695 H       1  UNL1        0.0618
     39 H           0.7269   -2.4383    0.6018 H       1  UNL1        0.0625
     40 H           2.6189   -1.6773    1.0013 H       1  UNL1        0.1731
     41 H           4.2572    0.6706    0.9145 H       1  UNL1        0.1731
     42 H           6.8503   -1.9664   -1.6921 H       1  UNL1        0.0626
     43 H           9.0585   -1.2845   -2.2114 H       1  UNL1        0.0618
     44 H           9.9427    0.7977   -1.3714 H       1  UNL1        0.0618
     45 H           8.5185    2.1703    0.0049 H       1  UNL1        0.0646
     46 H          -0.4595    1.5385    0.6308 H       1  UNL1        0.0644
@<TRIPOS>UNITY_ATOM_ATTR
9 1
charge -1
@<TRIPOS>BOND
     1     1     2    1
     2     2     3   ar
     3     2     8   ar
     4     3     4    1
     5     3     5   ar
     6     5     6   ar
     7     6     7   ar
     8     7     8   ar
     9     8     9    1
    10     9    10    1
    11    10    11    2
    12    10    12    2
    13    10    13    1
    14    13    14   ar
    15    13    31   ar
    16    14    15   ar
    17    15    16   ar
    18    16    17   ar
    19    17    18    1
    20    17    31   ar
    21    18    19    2
    22    18    20   am
    23    20    21    1
    24    21    22   am
    25    22    23    2
    26    22    24    1
    27    24    25   ar
    28    24    29   ar
    29    25    26   ar
    30    26    27   ar
    31    27    28   ar
    32    28    29   ar
    33    29    30    1
    34     1    32    1
    35     1    33    1
    36     5    34    1
    37     6    35    1
    38     7    36    1
    39    14    37    1
    40    15    38    1
    41    16    39    1
    42    20    40    1
    43    21    41    1
    44    25    42    1
    45    26    43    1
    46    27    44    1
    47    28    45    1
    48    31    46    1
@<TRIPOS>MOLECULE
../data/bude_mols_rdkit_confs_charged/molecule_88.pdb
 46 48 0 0 0
SMALL
GASTEIGER

@<TRIPOS>ATOM
      1  N1         7.1750   -0.0590   -0.4530 N.pl3   1  UNL1       -0.3567
      2  C1         6.2690    0.3500    0.5330 C.ar    1  UNL1        0.0457
      3  C2         6.6990    0.3250    1.8590 C.ar    1  UNL1        0.1427
      4  F1         7.9760   -0.1000    2.1400 F       1  UNL1       -0.2036
      5  C3         5.8540    0.7160    2.8660 C.ar    1  UNL1       -0.0247
      6  C4         4.5740    1.1350    2.5650 C.ar    1  UNL1       -0.0601
      7  C5         4.1280    1.1680    1.2670 C.ar    1  UNL1       -0.0743
      8  C6         4.9990    0.7680    0.2510 C.ar    1  UNL1       -0.1053
      9  N2         4.5240    0.7990   -1.1000 N.pl3   1  UNL1       -0.5353
     10  S1         3.7670   -0.6460   -1.6660 S.O2    1  UNL1       -0.0589
     11  O1         3.3410   -0.3550   -3.0980 O.2     1  UNL1       -0.1842
     12  O2         4.6820   -1.8170   -1.7110 O.2     1  UNL1       -0.1842
     13  C7         2.3380   -1.0470   -0.7180 C.ar    1  UNL1        0.0733
     14  C8         2.4670   -1.8460    0.4240 C.ar    1  UNL1       -0.0382
     15  C9         1.3890   -2.2010    1.2060 C.ar    1  UNL1       -0.0593
     16  C10        0.1370   -1.7620    0.8630 C.ar    1  UNL1       -0.0495
     17  C11       -0.0320   -0.9650   -0.2680 C.ar    1  UNL1        0.0399
     18  C12       -1.3870   -0.5200   -0.6490 C.2     1  UNL1        0.2602
     19  O3        -1.5910    0.5190   -1.3220 O.2     1  UNL1       -0.2687
     20  N3        -2.5360   -1.2730   -0.2580 N.am    1  UNL1       -0.2301
     21  N4        -3.8530   -0.8620   -0.6040 N.am    1  UNL1       -0.2300
     22  C13       -4.4950    0.1990    0.0390 C.2     1  UNL1        0.2629
     23  O4        -3.7950    0.7620    0.9630 O.2     1  UNL1       -0.2686
     24  C14       -5.8170    0.7360   -0.1960 C.ar    1  UNL1        0.0733
     25  C15       -6.3110    1.7790    0.5820 C.ar    1  UNL1       -0.0468
     26  C16       -7.5600    2.2820    0.3580 C.ar    1  UNL1       -0.0609
     27  C17       -8.3830    1.7850   -0.6400 C.ar    1  UNL1       -0.0590
     28  C18       -7.9200    0.7680   -1.4090 C.ar    1  UNL1       -0.0257
     29  C19       -6.6430    0.2590   -1.1760 C.ar    1  UNL1        0.1355
     30  F2        -6.2850   -0.7520   -2.0090 F       1  UNL1       -0.2047
     31  C20        1.0680   -0.6270   -1.0290 C.ar    1  UNL1       -0.0261
     32 H           8.0799   -0.3519   -0.1990 H       1  UNL1        0.1424
     33 H           6.9071   -0.0537   -1.4003 H       1  UNL1        0.1424
     34 H           6.1747    0.6969    3.8467 H       1  UNL1        0.0647
     35 H           3.9427    1.4279    3.3270 H       1  UNL1        0.0618
     36 H           3.1698    1.4816    1.0467 H       1  UNL1        0.0606
     37 H           3.4055   -2.1823    0.6908 H       1  UNL1        0.0636
     38 H           1.5234   -2.7916    2.0416 H       1  UNL1        0.0618
     39 H          -0.6783   -2.0207    1.4403 H       1  UNL1        0.0625
     40 H          -2.4132   -2.0982    0.2647 H       1  UNL1        0.1731
     41 H          -4.3281   -1.3414   -1.3207 H       1  UNL1        0.1731
     42 H          -5.7276    2.1757    1.3352 H       1  UNL1        0.0626
     43 H          -7.9016    3.0555    0.9496 H       1  UNL1        0.0618
     44 H          -9.3244    2.1787   -0.7943 H       1  UNL1        0.0618
     45 H          -8.5080    0.3743   -2.1602 H       1  UNL1        0.0646
     46 H           0.9313   -0.0360   -1.8639 H       1  UNL1        0.0644
@<TRIPOS>UNITY_ATOM_ATTR
9 1
charge -1
@<TRIPOS>BOND
     1     1     2    1
     2     2     3   ar
     3     2     8   ar
     4     3     4    1
     5     3     5   ar
     6     5     6   ar
     7     6     7   ar
     8     7     8   ar
     9     8     9    1
    10     9    10    1
    11    10    11    2
    12    10    12    2
    13    10    13    1
    14    13    14   ar
    15    13    31   ar
    16    14    15   ar
    17    15    16   ar
    18    16    17   ar
    19    17    18    1
    20    17    31   ar
    21    18    19    2
    22    18    20   am
    23    20    21    1
    24    21    22   am
    25    22    23    2
    26    22    24    1
    27    24    25   ar
    28    24    29   ar
    29    25    26   ar
    30    26    27   ar
    31    27    28   ar
    32    28    29   ar
    33    29    30    1
    34     1    32    1
    35     1    33    1
    36     5    34    1
    37     6    35    1
    38     7    36    1
    39    14    37    1
    40    15    38    1
    41    16    39    1
    42    20    40    1
    43    21    41    1
    44    25    42    1
    45    26    43    1
    46    27    44    1
    47    28    45    1
    48    31    46    1
@<TRIPOS>MOLECULE
../data/bude_mols_rdkit_confs_charged/molecule_88.pdb
 46 48 0 0 0
SMALL
GASTEIGER

@<TRIPOS>ATOM
      1  N1        -7.0390    1.3120   -0.7970 N.pl3   1  UNL1       -0.3567
      2  C1        -6.2270    0.1570   -0.7020 C.ar    1  UNL1        0.0457
      3  C2        -6.8410   -1.0500   -0.3590 C.ar    1  UNL1        0.1427
      4  F1        -8.1730   -1.0880   -0.1230 F       1  UNL1       -0.2036
      5  C3        -6.0890   -2.2100   -0.2610 C.ar    1  UNL1       -0.0247
      6  C4        -4.7460   -2.1610   -0.5020 C.ar    1  UNL1       -0.0601
      7  C5        -4.1540   -0.9600   -0.8390 C.ar    1  UNL1       -0.0743
      8  C6        -4.8720    0.2060   -0.9440 C.ar    1  UNL1       -0.1053
      9  N2        -4.2550    1.4530   -1.2690 N.pl3   1  UNL1       -0.5353
     10  S1        -3.6200    2.4690    0.0010 S.O2    1  UNL1       -0.0589
     11  O1        -4.6740    2.7840    1.0210 O.2     1  UNL1       -0.1842
     12  O2        -3.0410    3.7190   -0.6050 O.2     1  UNL1       -0.1842
     13  C7        -2.3610    1.5670    0.7970 C.ar    1  UNL1        0.0733
     14  C8        -2.6840    0.7110    1.8120 C.ar    1  UNL1       -0.0382
     15  C9        -1.6770   -0.0120    2.4290 C.ar    1  UNL1       -0.0593
     16  C10       -0.3630    0.1180    2.0370 C.ar    1  UNL1       -0.0495
     17  C11       -0.0330    0.9800    1.0140 C.ar    1  UNL1        0.0399
     18  C12        1.3590    1.0970    0.6010 C.2     1  UNL1        0.2602
     19  O3         1.8250    2.2110    0.1730 O.2     1  UNL1       -0.2687
     20  N3         2.2900    0.0300    0.6300 N.am    1  UNL1       -0.2301
     21  N4         3.6240    0.1850    0.2150 N.am    1  UNL1       -0.2300
     22  C13        4.5650   -0.8400    0.1890 C.2     1  UNL1        0.2629
     23  O4         4.1210   -1.9800    0.5890 O.2     1  UNL1       -0.2686
     24  C14        5.9470   -0.7950   -0.2220 C.ar    1  UNL1        0.0733
     25  C15        6.7440   -1.9460   -0.1900 C.ar    1  UNL1       -0.0468
     26  C16        8.0580   -1.9630   -0.5780 C.ar    1  UNL1       -0.0609
     27  C17        8.6770   -0.8240   -1.0270 C.ar    1  UNL1       -0.0590
     28  C18        7.9140    0.3190   -1.0650 C.ar    1  UNL1       -0.0257
     29  C19        6.5670    0.3420   -0.6700 C.ar    1  UNL1        0.1355
     30  F2         5.9100    1.5150   -0.7450 F       1  UNL1       -0.2047
     31  C20       -1.0480    1.6940    0.4100 C.ar    1  UNL1       -0.0261
     32 H          -8.0053    1.2504   -0.6190 H       1  UNL1        0.1424
     33 H          -6.6376    2.1772   -1.0411 H       1  UNL1        0.1424
     34 H          -6.5402   -3.1030   -0.0081 H       1  UNL1        0.0647
     35 H          -4.1756   -3.0182   -0.4326 H       1  UNL1        0.0618
     36 H          -3.1379   -0.9378   -1.0180 H       1  UNL1        0.0606
     37 H          -3.6649    0.6048    2.1146 H       1  UNL1        0.0636
     38 H          -1.9153   -0.6598    3.1962 H       1  UNL1        0.0618
     39 H           0.3735   -0.4296    2.5090 H       1  UNL1        0.0625
     40 H           1.9923   -0.8514    0.9522 H       1  UNL1        0.1731
     41 H           3.9124    1.0798   -0.0772 H       1  UNL1        0.1731
     42 H           6.3201   -2.8261    0.1427 H       1  UNL1        0.0626
     43 H           8.5901   -2.8460   -0.5318 H       1  UNL1        0.0618
     44 H           9.6661   -0.8251   -1.3215 H       1  UNL1        0.0618
     45 H           8.3484    1.1943   -1.3969 H       1  UNL1        0.0646
     46 H          -0.8138    2.3440   -0.3566 H       1  UNL1        0.0644
@<TRIPOS>UNITY_ATOM_ATTR
9 1
charge -1
@<TRIPOS>BOND
     1     1     2    1
     2     2     3   ar
     3     2     8   ar
     4     3     4    1
     5     3     5   ar
     6     5     6   ar
     7     6     7   ar
     8     7     8   ar
     9     8     9    1
    10     9    10    1
    11    10    11    2
    12    10    12    2
    13    10    13    1
    14    13    14   ar
    15    13    31   ar
    16    14    15   ar
    17    15    16   ar
    18    16    17   ar
    19    17    18    1
    20    17    31   ar
    21    18    19    2
    22    18    20   am
    23    20    21    1
    24    21    22   am
    25    22    23    2
    26    22    24    1
    27    24    25   ar
    28    24    29   ar
    29    25    26   ar
    30    26    27   ar
    31    27    28   ar
    32    28    29   ar
    33    29    30    1
    34     1    32    1
    35     1    33    1
    36     5    34    1
    37     6    35    1
    38     7    36    1
    39    14    37    1
    40    15    38    1
    41    16    39    1
    42    20    40    1
    43    21    41    1
    44    25    42    1
    45    26    43    1
    46    27    44    1
    47    28    45    1
    48    31    46    1
@<TRIPOS>MOLECULE
../data/bude_mols_rdkit_confs_charged/molecule_88.pdb
 46 48 0 0 0
SMALL
GASTEIGER

@<TRIPOS>ATOM
      1  N1        -6.4440    1.4980    1.6020 N.pl3   1  UNL1       -0.3567
      2  C1        -6.1080    0.7910    0.4260 C.ar    1  UNL1        0.0457
      3  C2        -7.1070    0.0950   -0.2220 C.ar    1  UNL1        0.1427
      4  F1        -8.3630    0.1110    0.2840 F       1  UNL1       -0.2036
      5  C3        -6.8210   -0.6080   -1.3730 C.ar    1  UNL1       -0.0247
      6  C4        -5.5460   -0.6380   -1.9070 C.ar    1  UNL1       -0.0601
      7  C5        -4.5610    0.0670   -1.2400 C.ar    1  UNL1       -0.0743
      8  C6        -4.8070    0.7800   -0.0890 C.ar    1  UNL1       -0.1053
      9  N2        -3.7920    1.5080    0.6030 N.pl3   1  UNL1       -0.5353
     10  S1        -2.8370    0.7800    1.8470 S.O2    1  UNL1       -0.0589
     11  O1        -1.8960    1.8550    2.3450 O.2     1  UNL1       -0.1842
     12  O2        -3.7190    0.3450    2.9680 O.2     1  UNL1       -0.1842
     13  C7        -1.9070   -0.5630    1.2290 C.ar    1  UNL1        0.0733
     14  C8        -2.4700   -1.8170    1.2400 C.ar    1  UNL1       -0.0382
     15  C9        -1.7040   -2.8650    0.7430 C.ar    1  UNL1       -0.0593
     16  C10       -0.4350   -2.6720    0.2560 C.ar    1  UNL1       -0.0495
     17  C11        0.0970   -1.4030    0.2610 C.ar    1  UNL1        0.0399
     18  C12        1.4470   -1.2180   -0.2590 C.2     1  UNL1        0.2602
     19  O3         2.0920   -2.2060   -0.7380 O.2     1  UNL1       -0.2687
     20  N3         2.1420    0.0150   -0.2830 N.am    1  UNL1       -0.2301
     21  N4         3.4360    0.1510   -0.7890 N.am    1  UNL1       -0.2300
     22  C13        4.4570    0.6010    0.0810 C.2     1  UNL1        0.2629
     23  O4         4.1000    0.8530    1.2850 O.2     1  UNL1       -0.2686
     24  C14        5.8380    0.8060   -0.2340 C.ar    1  UNL1        0.0733
     25  C15        6.6910    1.2960    0.7390 C.ar    1  UNL1       -0.0468
     26  C16        8.0100    1.4960    0.4450 C.ar    1  UNL1       -0.0609
     27  C17        8.5510    1.2300   -0.7970 C.ar    1  UNL1       -0.0590
     28  C18        7.6960    0.7430   -1.7550 C.ar    1  UNL1       -0.0257
     29  C19        6.3370    0.5290   -1.4800 C.ar    1  UNL1        0.1355
     30  F2         5.6100    0.0440   -2.5160 F       1  UNL1       -0.2047
     31  C20       -0.6210   -0.3240    0.7440 C.ar    1  UNL1       -0.0261
     32 H          -7.3697    1.4846    1.9369 H       1  UNL1        0.1424
     33 H          -5.7525    2.0041    2.0866 H       1  UNL1        0.1424
     34 H          -7.5776   -1.1248   -1.8479 H       1  UNL1        0.0647
     35 H          -5.3377   -1.1656   -2.7691 H       1  UNL1        0.0618
     36 H          -3.6020    0.0581   -1.6211 H       1  UNL1        0.0606
     37 H          -3.4233   -1.9741    1.6028 H       1  UNL1        0.0636
     38 H          -2.1014   -3.8174    0.7400 H       1  UNL1        0.0618
     39 H           0.1122   -3.4674   -0.1087 H       1  UNL1        0.0625
     40 H           1.6916    0.8143    0.0740 H       1  UNL1        0.1731
     41 H           3.6336   -0.0614   -1.7298 H       1  UNL1        0.1731
     42 H           6.3323    1.5095    1.6828 H       1  UNL1        0.0626
     43 H           8.6298    1.8623    1.1844 H       1  UNL1        0.0618
     44 H           9.5509    1.3896   -0.9961 H       1  UNL1        0.0618
     45 H           8.0607    0.5301   -2.6966 H       1  UNL1        0.0646
     46 H          -0.2187    0.6264    0.7455 H       1  UNL1        0.0644
@<TRIPOS>UNITY_ATOM_ATTR
9 1
charge -1
@<TRIPOS>BOND
     1     1     2    1
     2     2     3   ar
     3     2     8   ar
     4     3     4    1
     5     3     5   ar
     6     5     6   ar
     7     6     7   ar
     8     7     8   ar
     9     8     9    1
    10     9    10    1
    11    10    11    2
    12    10    12    2
    13    10    13    1
    14    13    14   ar
    15    13    31   ar
    16    14    15   ar
    17    15    16   ar
    18    16    17   ar
    19    17    18    1
    20    17    31   ar
    21    18    19    2
    22    18    20   am
    23    20    21    1
    24    21    22   am
    25    22    23    2
    26    22    24    1
    27    24    25   ar
    28    24    29   ar
    29    25    26   ar
    30    26    27   ar
    31    27    28   ar
    32    28    29   ar
    33    29    30    1
    34     1    32    1
    35     1    33    1
    36     5    34    1
    37     6    35    1
    38     7    36    1
    39    14    37    1
    40    15    38    1
    41    16    39    1
    42    20    40    1
    43    21    41    1
    44    25    42    1
    45    26    43    1
    46    27    44    1
    47    28    45    1
    48    31    46    1
@<TRIPOS>MOLECULE
../data/bude_mols_rdkit_confs_charged/molecule_88.pdb
 46 48 0 0 0
SMALL
GASTEIGER

@<TRIPOS>ATOM
      1  N1        -3.6690   -1.3020    0.8620 N.pl3   1  UNL1       -0.3567
      2  C1        -4.9560   -0.8090    0.5310 C.ar    1  UNL1        0.0457
      3  C2        -5.8470   -1.6630   -0.1010 C.ar    1  UNL1        0.1427
      4  F1        -5.4890   -2.9360   -0.3850 F       1  UNL1       -0.2036
      5  C3        -7.1100   -1.2370   -0.4540 C.ar    1  UNL1       -0.0247
      6  C4        -7.5160    0.0670   -0.1790 C.ar    1  UNL1       -0.0601
      7  C5        -6.6120    0.8900    0.4470 C.ar    1  UNL1       -0.0743
      8  C6        -5.3440    0.4790    0.8070 C.ar    1  UNL1       -0.1053
      9  N2        -4.4970    1.4110    1.4590 N.pl3   1  UNL1       -0.5353
     10  S1        -3.4620    2.4040    0.5400 S.O2    1  UNL1       -0.0589
     11  O1        -4.1890    3.2990   -0.4280 O.2     1  UNL1       -0.1842
     12  O2        -2.6820    3.3100    1.4770 O.2     1  UNL1       -0.1842
     13  C7        -2.2960    1.4620   -0.3680 C.ar    1  UNL1        0.0733
     14  C8        -2.5380    0.8930   -1.5690 C.ar    1  UNL1       -0.0382
     15  C9        -1.5890    0.1890   -2.2620 C.ar    1  UNL1       -0.0593
     16  C10       -0.3370    0.0520   -1.7210 C.ar    1  UNL1       -0.0495
     17  C11       -0.0170    0.6150   -0.4840 C.ar    1  UNL1        0.0399
     18  C12        1.3200    0.4810    0.0590 C.2     1  UNL1        0.2602
     19  O3         1.5780    0.1130    1.2220 O.2     1  UNL1       -0.2687
     20  N3         2.3910    0.7990   -0.8150 N.am    1  UNL1       -0.2301
     21  N4         3.7400    0.7380   -0.5040 N.am    1  UNL1       -0.2300
     22  C13        4.3830   -0.4910   -0.2940 C.2     1  UNL1        0.2629
     23  O4         3.6270   -1.5240   -0.4120 O.2     1  UNL1       -0.2686
     24  C14        5.7870   -0.6890    0.0310 C.ar    1  UNL1        0.0733
     25  C15        6.2880   -1.9860   -0.0110 C.ar    1  UNL1       -0.0468
     26  C16        7.6110   -2.2460    0.2580 C.ar    1  UNL1       -0.0609
     27  C17        8.4860   -1.2320    0.5780 C.ar    1  UNL1       -0.0590
     28  C18        8.0180    0.0600    0.6270 C.ar    1  UNL1       -0.0257
     29  C19        6.6810    0.2980    0.3520 C.ar    1  UNL1        0.1355
     30  F2         6.2570    1.5930    0.4200 F       1  UNL1       -0.2047
     31  C20       -1.0050    1.3080    0.1650 C.ar    1  UNL1       -0.0261
     32 H          -3.4281   -2.2322    0.6476 H       1  UNL1        0.1424
     33 H          -3.0160   -0.7143    1.3063 H       1  UNL1        0.1424
     34 H          -7.7582   -1.8878   -0.9245 H       1  UNL1        0.0647
     35 H          -8.4582    0.4011   -0.4354 H       1  UNL1        0.0618
     36 H          -6.8935    1.8602    0.6580 H       1  UNL1        0.0606
     37 H          -3.4783    0.9930   -1.9823 H       1  UNL1        0.0636
     38 H          -1.8132   -0.2317   -3.1773 H       1  UNL1        0.0618
     39 H           0.3827   -0.4773   -2.2377 H       1  UNL1        0.0625
     40 H           2.1544    1.0895   -1.7254 H       1  UNL1        0.1731
     41 H           4.2567    1.5726   -0.4290 H       1  UNL1        0.1731
     42 H           5.6558   -2.7665   -0.2481 H       1  UNL1        0.0626
     43 H           7.9544   -3.2184    0.2194 H       1  UNL1        0.0618
     44 H           9.4772   -1.4385    0.7779 H       1  UNL1        0.0618
     45 H           8.6517    0.8391    0.8645 H       1  UNL1        0.0646
     46 H          -0.7927    1.7334    1.0810 H       1  UNL1        0.0644
@<TRIPOS>UNITY_ATOM_ATTR
9 1
charge -1
@<TRIPOS>BOND
     1     1     2    1
     2     2     3   ar
     3     2     8   ar
     4     3     4    1
     5     3     5   ar
     6     5     6   ar
     7     6     7   ar
     8     7     8   ar
     9     8     9    1
    10     9    10    1
    11    10    11    2
    12    10    12    2
    13    10    13    1
    14    13    14   ar
    15    13    31   ar
    16    14    15   ar
    17    15    16   ar
    18    16    17   ar
    19    17    18    1
    20    17    31   ar
    21    18    19    2
    22    18    20   am
    23    20    21    1
    24    21    22   am
    25    22    23    2
    26    22    24    1
    27    24    25   ar
    28    24    29   ar
    29    25    26   ar
    30    26    27   ar
    31    27    28   ar
    32    28    29   ar
    33    29    30    1
    34     1    32    1
    35     1    33    1
    36     5    34    1
    37     6    35    1
    38     7    36    1
    39    14    37    1
    40    15    38    1
    41    16    39    1
    42    20    40    1
    43    21    41    1
    44    25    42    1
    45    26    43    1
    46    27    44    1
    47    28    45    1
    48    31    46    1
@<TRIPOS>MOLECULE
../data/bude_mols_rdkit_confs_charged/molecule_88.pdb
 46 48 0 0 0
SMALL
GASTEIGER

@<TRIPOS>ATOM
      1  N1        -6.6740   -0.2900   -2.1420 N.pl3   1  UNL1       -0.3567
      2  C1        -6.2780   -0.3660   -0.7610 C.ar    1  UNL1        0.0457
      3  C2        -7.2130   -0.0840    0.2250 C.ar    1  UNL1        0.1427
      4  F1        -8.4540    0.2590   -0.1600 F       1  UNL1       -0.2036
      5  C3        -6.9100   -0.1440    1.5670 C.ar    1  UNL1       -0.0247
      6  C4        -5.6230   -0.5000    1.9460 C.ar    1  UNL1       -0.0601
      7  C5        -4.6670   -0.7890    0.9760 C.ar    1  UNL1       -0.0743
      8  C6        -5.0110   -0.7160   -0.3640 C.ar    1  UNL1       -0.1053
      9  N2        -4.0280   -0.9850   -1.3790 N.pl3   1  UNL1       -0.5353
     10  S1        -3.0350    0.2970   -1.9840 S.O2    1  UNL1       -0.0589
     11  O1        -3.9510    1.3760   -2.5050 O.2     1  UNL1       -0.1842
     12  O2        -2.1830   -0.2610   -3.0790 O.2     1  UNL1       -0.1842
     13  C7        -2.0310    0.9900   -0.7180 C.ar    1  UNL1        0.0733
     14  C8        -2.6200    1.7700    0.2350 C.ar    1  UNL1       -0.0382
     15  C9        -1.8230    2.3510    1.1870 C.ar    1  UNL1       -0.0593
     16  C10       -0.4660    2.1610    1.1920 C.ar    1  UNL1       -0.0495
     17  C11        0.1330    1.3700    0.2230 C.ar    1  UNL1        0.0399
     18  C12        1.5910    1.2290    0.1930 C.2     1  UNL1        0.2602
     19  O3         2.2930    2.2780    0.4770 O.2     1  UNL1       -0.2687
     20  N3         2.3150    0.0770   -0.1120 N.am    1  UNL1       -0.2301
     21  N4         3.7290    0.1210   -0.1120 N.am    1  UNL1       -0.2300
     22  C13        4.5240   -1.0660   -0.1910 C.2     1  UNL1        0.2629
     23  O4         3.8400   -2.1500   -0.2470 O.2     1  UNL1       -0.2686
     24  C14        5.9580   -1.0820   -0.2120 C.ar    1  UNL1        0.0733
     25  C15        6.5910   -2.3210   -0.1020 C.ar    1  UNL1       -0.0468
     26  C16        7.9630   -2.4750   -0.1180 C.ar    1  UNL1       -0.0609
     27  C17        8.7490   -1.3530   -0.2470 C.ar    1  UNL1       -0.0590
     28  C18        8.1690   -0.1130   -0.3570 C.ar    1  UNL1       -0.0257
     29  C19        6.7800   -0.0030   -0.3370 C.ar    1  UNL1        0.1355
     30  F2         6.2950    1.2460   -0.4520 F       1  UNL1       -0.2047
     31  C20       -0.6560    0.7860   -0.7300 C.ar    1  UNL1       -0.0261
     32 H          -7.5953   -0.0341   -2.3765 H       1  UNL1        0.1424
     33 H          -6.0237   -0.4939   -2.8525 H       1  UNL1        0.1424
     34 H          -7.6265    0.0717    2.2777 H       1  UNL1        0.0647
     35 H          -5.3749   -0.5504    2.9465 H       1  UNL1        0.0618
     36 H          -3.7093   -1.0556    1.2531 H       1  UNL1        0.0606
     37 H          -3.6412    1.9188    0.2387 H       1  UNL1        0.0636
     38 H          -2.2535    2.9432    1.9143 H       1  UNL1        0.0618
     39 H           0.1128    2.6084    1.9199 H       1  UNL1        0.0625
     40 H           1.8453   -0.7614   -0.3259 H       1  UNL1        0.1731
     41 H           4.1795    0.9946   -0.0560 H       1  UNL1        0.1731
     42 H           6.0042   -3.1642   -0.0038 H       1  UNL1        0.0626
     43 H           8.3896   -3.4110   -0.0350 H       1  UNL1        0.0618
     44 H           9.7769   -1.4435   -0.2611 H       1  UNL1        0.0618
     45 H           8.7566    0.7298   -0.4536 H       1  UNL1        0.0646
     46 H          -0.2296    0.1930   -1.4591 H       1  UNL1        0.0644
@<TRIPOS>UNITY_ATOM_ATTR
9 1
charge -1
@<TRIPOS>BOND
     1     1     2    1
     2     2     3   ar
     3     2     8   ar
     4     3     4    1
     5     3     5   ar
     6     5     6   ar
     7     6     7   ar
     8     7     8   ar
     9     8     9    1
    10     9    10    1
    11    10    11    2
    12    10    12    2
    13    10    13    1
    14    13    14   ar
    15    13    31   ar
    16    14    15   ar
    17    15    16   ar
    18    16    17   ar
    19    17    18    1
    20    17    31   ar
    21    18    19    2
    22    18    20   am
    23    20    21    1
    24    21    22   am
    25    22    23    2
    26    22    24    1
    27    24    25   ar
    28    24    29   ar
    29    25    26   ar
    30    26    27   ar
    31    27    28   ar
    32    28    29   ar
    33    29    30    1
    34     1    32    1
    35     1    33    1
    36     5    34    1
    37     6    35    1
    38     7    36    1
    39    14    37    1
    40    15    38    1
    41    16    39    1
    42    20    40    1
    43    21    41    1
    44    25    42    1
    45    26    43    1
    46    27    44    1
    47    28    45    1
    48    31    46    1
@<TRIPOS>MOLECULE
../data/bude_mols_rdkit_confs_charged/molecule_88.pdb
 46 48 0 0 0
SMALL
GASTEIGER

@<TRIPOS>ATOM
      1  N1        -3.4970   -1.2060   -1.0560 N.pl3   1  UNL1       -0.3567
      2  C1        -4.8240   -0.8710   -0.7020 C.ar    1  UNL1        0.0457
      3  C2        -5.5740   -1.7850    0.0350 C.ar    1  UNL1        0.1427
      4  F1        -5.0470   -2.9760    0.4090 F       1  UNL1       -0.2036
      5  C3        -6.8720   -1.4880    0.3950 C.ar    1  UNL1       -0.0247
      6  C4        -7.4220   -0.2800    0.0210 C.ar    1  UNL1       -0.0601
      7  C5        -6.6640    0.5970   -0.7010 C.ar    1  UNL1       -0.0743
      8  C6        -5.3510    0.3440   -1.0890 C.ar    1  UNL1       -0.1053
      9  N2        -4.6050    1.2860   -1.8400 N.pl3   1  UNL1       -0.5353
     10  S1        -3.6360    2.5040   -1.0790 S.O2    1  UNL1       -0.0589
     11  O1        -3.0680    3.4320   -2.1030 O.2     1  UNL1       -0.1842
     12  O2        -4.5320    3.2990   -0.1730 O.2     1  UNL1       -0.1842
     13  C7        -2.3680    1.7680   -0.1030 C.ar    1  UNL1        0.0733
     14  C8        -2.6690    1.4870    1.2130 C.ar    1  UNL1       -0.0382
     15  C9        -1.7250    0.9130    2.0310 C.ar    1  UNL1       -0.0593
     16  C10       -0.4860    0.6280    1.5170 C.ar    1  UNL1       -0.0495
     17  C11       -0.1650    0.8990    0.2090 C.ar    1  UNL1        0.0399
     18  C12        1.1570    0.5900   -0.3270 C.2     1  UNL1        0.2602
     19  O3         1.4130    0.9000   -1.5300 O.2     1  UNL1       -0.2687
     20  N3         2.1950   -0.0380    0.3960 N.am    1  UNL1       -0.2301
     21  N4         3.4550   -0.3060   -0.1920 N.am    1  UNL1       -0.2300
     22  C13        4.5760   -0.3960    0.6620 C.2     1  UNL1        0.2629
     23  O4         4.3390   -0.2250    1.9200 O.2     1  UNL1       -0.2686
     24  C14        5.9360   -0.6580    0.2730 C.ar    1  UNL1        0.0733
     25  C15        6.8970   -0.8740    1.2710 C.ar    1  UNL1       -0.0468
     26  C16        8.2120   -1.1420    0.9500 C.ar    1  UNL1       -0.0609
     27  C17        8.6150   -1.2040   -0.3670 C.ar    1  UNL1       -0.0590
     28  C18        7.6750   -0.9920   -1.3420 C.ar    1  UNL1       -0.0257
     29  C19        6.3410   -0.7210   -1.0390 C.ar    1  UNL1        0.1355
     30  F2         5.4970   -0.5200   -2.0720 F       1  UNL1       -0.2047
     31  C20       -1.1350    1.4820   -0.6120 C.ar    1  UNL1       -0.0261
     32 H          -3.1180   -2.0721   -0.7814 H       1  UNL1        0.1424
     33 H          -2.9519   -0.5732   -1.5771 H       1  UNL1        0.1424
     34 H          -7.4277   -2.1652    0.9405 H       1  UNL1        0.0647
     35 H          -8.3916   -0.0423    0.2827 H       1  UNL1        0.0618
     36 H          -7.0880    1.4973   -0.9742 H       1  UNL1        0.0606
     37 H          -3.6059    1.7083    1.5850 H       1  UNL1        0.0636
     38 H          -1.9453    0.6999    3.0164 H       1  UNL1        0.0618
     39 H           0.2247    0.1982    2.1295 H       1  UNL1        0.0625
     40 H           2.0385   -0.2961    1.3331 H       1  UNL1        0.1731
     41 H           3.5465   -0.4257   -1.1649 H       1  UNL1        0.1731
     42 H           6.6159   -0.8318    2.2631 H       1  UNL1        0.0626
     43 H           8.9004   -1.2975    1.7030 H       1  UNL1        0.0618
     44 H           9.5972   -1.4045   -0.6121 H       1  UNL1        0.0618
     45 H           7.9638   -1.0343   -2.3319 H       1  UNL1        0.0646
     46 H          -0.9193    1.6950   -1.5985 H       1  UNL1        0.0644
@<TRIPOS>UNITY_ATOM_ATTR
9 1
charge -1
@<TRIPOS>BOND
     1     1     2    1
     2     2     3   ar
     3     2     8   ar
     4     3     4    1
     5     3     5   ar
     6     5     6   ar
     7     6     7   ar
     8     7     8   ar
     9     8     9    1
    10     9    10    1
    11    10    11    2
    12    10    12    2
    13    10    13    1
    14    13    14   ar
    15    13    31   ar
    16    14    15   ar
    17    15    16   ar
    18    16    17   ar
    19    17    18    1
    20    17    31   ar
    21    18    19    2
    22    18    20   am
    23    20    21    1
    24    21    22   am
    25    22    23    2
    26    22    24    1
    27    24    25   ar
    28    24    29   ar
    29    25    26   ar
    30    26    27   ar
    31    27    28   ar
    32    28    29   ar
    33    29    30    1
    34     1    32    1
    35     1    33    1
    36     5    34    1
    37     6    35    1
    38     7    36    1
    39    14    37    1
    40    15    38    1
    41    16    39    1
    42    20    40    1
    43    21    41    1
    44    25    42    1
    45    26    43    1
    46    27    44    1
    47    28    45    1
    48    31    46    1
@<TRIPOS>MOLECULE
../data/bude_mols_rdkit_confs_charged/molecule_88.pdb
 46 48 0 0 0
SMALL
GASTEIGER

@<TRIPOS>ATOM
      1  N1        -6.9770   -2.0760   -0.4500 N.pl3   1  UNL1       -0.3567
      2  C1        -6.5760   -0.7170   -0.4780 C.ar    1  UNL1        0.0457
      3  C2        -7.3540    0.2650    0.0890 C.ar    1  UNL1        0.1427
      4  F1        -8.5560   -0.0430    0.6870 F       1  UNL1       -0.2036
      5  C3        -6.9890    1.5930    0.0830 C.ar    1  UNL1       -0.0247
      6  C4        -5.8020    1.9550   -0.5090 C.ar    1  UNL1       -0.0601
      7  C5        -4.9980    0.9700   -1.0910 C.ar    1  UNL1       -0.0743
      8  C6        -5.3760   -0.3420   -1.0770 C.ar    1  UNL1       -0.1053
      9  N2        -4.5750   -1.3770   -1.6490 N.pl3   1  UNL1       -0.5353
     10  S1        -3.3850   -2.1990   -0.7300 S.O2    1  UNL1       -0.0589
     11  O1        -3.9900   -2.8950    0.4710 O.2     1  UNL1       -0.1842
     12  O2        -2.7440   -3.2640   -1.5730 O.2     1  UNL1       -0.1842
     13  C7        -2.1170   -1.1390   -0.1480 C.ar    1  UNL1        0.0733
     14  C8        -2.3790   -0.3100    0.9270 C.ar    1  UNL1       -0.0382
     15  C9        -1.4060    0.5170    1.4700 C.ar    1  UNL1       -0.0593
     16  C10       -0.1460    0.5120    0.9220 C.ar    1  UNL1       -0.0495
     17  C11        0.1030   -0.3260   -0.1560 C.ar    1  UNL1        0.0399
     18  C12        1.4960   -0.3500   -0.6430 C.2     1  UNL1        0.2602
     19  O3         1.7520   -0.4010   -1.8700 O.2     1  UNL1       -0.2687
     20  N3         2.5190   -0.3200    0.3380 N.am    1  UNL1       -0.2301
     21  N4         3.8850   -0.3550    0.0430 N.am    1  UNL1       -0.2300
     22  C13        4.7610    0.6510    0.4960 C.2     1  UNL1        0.2629
     23  O4         4.2130    1.6000    1.1730 O.2     1  UNL1       -0.2686
     24  C14        6.1770    0.6950    0.2680 C.ar    1  UNL1        0.0733
     25  C15        6.8010    1.9470    0.4060 C.ar    1  UNL1       -0.0468
     26  C16        8.1500    2.0140    0.1750 C.ar    1  UNL1       -0.0609
     27  C17        8.9420    0.9420   -0.1840 C.ar    1  UNL1       -0.0590
     28  C18        8.2970   -0.2640   -0.3100 C.ar    1  UNL1       -0.0257
     29  C19        6.9340   -0.4020   -0.0900 C.ar    1  UNL1        0.1355
     30  F2         6.3600   -1.6450   -0.2160 F       1  UNL1       -0.2047
     31  C20       -0.8450   -1.1510   -0.7090 C.ar    1  UNL1       -0.0261
     32 H          -7.8275   -2.3296   -0.0238 H       1  UNL1        0.1424
     33 H          -6.4051   -2.7665   -0.8568 H       1  UNL1        0.1424
     34 H          -7.5971    2.3054    0.5162 H       1  UNL1        0.0647
     35 H          -5.5073    2.9439   -0.5237 H       1  UNL1        0.0618
     36 H          -4.1069    1.2383   -1.5371 H       1  UNL1        0.0606
     37 H          -3.3258   -0.3061    1.3376 H       1  UNL1        0.0636
     38 H          -1.6254    1.1266    2.2733 H       1  UNL1        0.0618
     39 H           0.5979    1.1173    1.3031 H       1  UNL1        0.0625
     40 H           2.2512   -0.2716    1.2842 H       1  UNL1        0.1731
     41 H           4.2427   -1.0991   -0.4932 H       1  UNL1        0.1731
     42 H           6.2622    2.7861    0.6719 H       1  UNL1        0.0626
     43 H           8.6074    2.9335    0.2769 H       1  UNL1        0.0618
     44 H           9.9562    1.0406   -0.3476 H       1  UNL1        0.0618
     45 H           8.8451   -1.0964   -0.5776 H       1  UNL1        0.0646
     46 H          -0.6213   -1.7585   -1.5127 H       1  UNL1        0.0644
@<TRIPOS>UNITY_ATOM_ATTR
9 1
charge -1
@<TRIPOS>BOND
     1     1     2    1
     2     2     3   ar
     3     2     8   ar
     4     3     4    1
     5     3     5   ar
     6     5     6   ar
     7     6     7   ar
     8     7     8   ar
     9     8     9    1
    10     9    10    1
    11    10    11    2
    12    10    12    2
    13    10    13    1
    14    13    14   ar
    15    13    31   ar
    16    14    15   ar
    17    15    16   ar
    18    16    17   ar
    19    17    18    1
    20    17    31   ar
    21    18    19    2
    22    18    20   am
    23    20    21    1
    24    21    22   am
    25    22    23    2
    26    22    24    1
    27    24    25   ar
    28    24    29   ar
    29    25    26   ar
    30    26    27   ar
    31    27    28   ar
    32    28    29   ar
    33    29    30    1
    34     1    32    1
    35     1    33    1
    36     5    34    1
    37     6    35    1
    38     7    36    1
    39    14    37    1
    40    15    38    1
    41    16    39    1
    42    20    40    1
    43    21    41    1
    44    25    42    1
    45    26    43    1
    46    27    44    1
    47    28    45    1
    48    31    46    1
@<TRIPOS>MOLECULE
../data/bude_mols_rdkit_confs_charged/molecule_88.pdb
 46 48 0 0 0
SMALL
GASTEIGER

@<TRIPOS>ATOM
      1  N1        -6.0970   -3.1420   -0.6720 N.pl3   1  UNL1       -0.3567
      2  C1        -6.4820   -1.9300   -0.0460 C.ar    1  UNL1        0.0457
      3  C2        -7.8240   -1.5830    0.0070 C.ar    1  UNL1        0.1427
      4  F1        -8.7420   -2.4080   -0.5540 F       1  UNL1       -0.2036
      5  C3        -8.2160   -0.3950    0.6330 C.ar    1  UNL1       -0.0247
      6  C4        -7.2520    0.4180    1.1910 C.ar    1  UNL1       -0.0601
      7  C5        -5.9350    0.0620    1.1290 C.ar    1  UNL1       -0.0743
      8  C6        -5.5510   -1.1030    0.5150 C.ar    1  UNL1       -0.1053
      9  N2        -4.1680   -1.4830    0.4250 N.pl3   1  UNL1       -0.5353
     10  S1        -3.2300   -0.9400   -0.9520 S.O2    1  UNL1       -0.0589
     11  O1        -4.1000   -0.2740   -1.9690 O.2     1  UNL1       -0.1842
     12  O2        -2.5450   -2.1120   -1.5850 O.2     1  UNL1       -0.1842
     13  C7        -2.0170    0.1690   -0.3820 C.ar    1  UNL1        0.0733
     14  C8        -2.3940    1.4830   -0.1050 C.ar    1  UNL1       -0.0382
     15  C9        -1.4210    2.3490    0.3190 C.ar    1  UNL1       -0.0593
     16  C10       -0.1180    1.9240    0.4610 C.ar    1  UNL1       -0.0495
     17  C11        0.2800    0.6350    0.1950 C.ar    1  UNL1        0.0399
     18  C12        1.6510    0.1700    0.3100 C.2     1  UNL1        0.2602
     19  O3         1.9390   -1.0500    0.1780 O.2     1  UNL1       -0.2687
     20  N3         2.7210    1.0450    0.5680 N.am    1  UNL1       -0.2301
     21  N4         4.0590    0.5430    0.6630 N.am    1  UNL1       -0.2300
     22  C13        5.0960    1.1150   -0.1380 C.2     1  UNL1        0.2629
     23  O4         4.7080    2.0780   -0.8690 O.2     1  UNL1       -0.2686
     24  C14        6.4710    0.6640   -0.1420 C.ar    1  UNL1        0.0733
     25  C15        7.4980    1.4420   -0.6580 C.ar    1  UNL1       -0.0468
     26  C16        8.8120    1.0280   -0.6740 C.ar    1  UNL1       -0.0609
     27  C17        9.1640   -0.1940   -0.1700 C.ar    1  UNL1       -0.0590
     28  C18        8.1610   -0.9950    0.3550 C.ar    1  UNL1       -0.0257
     29  C19        6.8250   -0.5570    0.3620 C.ar    1  UNL1        0.1355
     30  F2         5.9360   -1.4380    0.8770 F       1  UNL1       -0.2047
     31  C20       -0.7140   -0.2510   -0.2380 C.ar    1  UNL1       -0.0261
     32 H          -6.7796   -3.7279   -1.0720 H       1  UNL1        0.1424
     33 H          -5.1470   -3.3979   -0.7068 H       1  UNL1        0.1424
     34 H          -9.2126   -0.1307    0.6766 H       1  UNL1        0.0647
     35 H          -7.5264    1.2973    1.6564 H       1  UNL1        0.0618
     36 H          -5.2203    0.6767    1.5490 H       1  UNL1        0.0606
     37 H          -3.3724    1.7922   -0.2157 H       1  UNL1        0.0636
     38 H          -1.6660    3.3282    0.5339 H       1  UNL1        0.0618
     39 H           0.5903    2.6029    0.7810 H       1  UNL1        0.0625
     40 H           2.5496    2.0075    0.6839 H       1  UNL1        0.1731
     41 H           4.2647   -0.1961    1.2800 H       1  UNL1        0.1731
     42 H           7.2676    2.3700   -1.0462 H       1  UNL1        0.0626
     43 H           9.5377    1.6458   -1.0700 H       1  UNL1        0.0618
     44 H          10.1463   -0.5103   -0.1801 H       1  UNL1        0.0618
     45 H           8.3974   -1.9211    0.7441 H       1  UNL1        0.0646
     46 H          -0.4670   -1.2300   -0.4516 H       1  UNL1        0.0644
@<TRIPOS>UNITY_ATOM_ATTR
9 1
charge -1
@<TRIPOS>BOND
     1     1     2    1
     2     2     3   ar
     3     2     8   ar
     4     3     4    1
     5     3     5   ar
     6     5     6   ar
     7     6     7   ar
     8     7     8   ar
     9     8     9    1
    10     9    10    1
    11    10    11    2
    12    10    12    2
    13    10    13    1
    14    13    14   ar
    15    13    31   ar
    16    14    15   ar
    17    15    16   ar
    18    16    17   ar
    19    17    18    1
    20    17    31   ar
    21    18    19    2
    22    18    20   am
    23    20    21    1
    24    21    22   am
    25    22    23    2
    26    22    24    1
    27    24    25   ar
    28    24    29   ar
    29    25    26   ar
    30    26    27   ar
    31    27    28   ar
    32    28    29   ar
    33    29    30    1
    34     1    32    1
    35     1    33    1
    36     5    34    1
    37     6    35    1
    38     7    36    1
    39    14    37    1
    40    15    38    1
    41    16    39    1
    42    20    40    1
    43    21    41    1
    44    25    42    1
    45    26    43    1
    46    27    44    1
    47    28    45    1
    48    31    46    1
@<TRIPOS>MOLECULE
../data/bude_mols_rdkit_confs_charged/molecule_88.pdb
 46 48 0 0 0
SMALL
GASTEIGER

@<TRIPOS>ATOM
      1  N1        -6.8860    0.8500   -0.7940 N.pl3   1  UNL1       -0.3567
      2  C1        -6.3500    1.1150    0.5060 C.ar    1  UNL1        0.0457
      3  C2        -7.0530    1.9310    1.3670 C.ar    1  UNL1        0.1427
      4  F1        -8.2360    2.5000    0.9900 F       1  UNL1       -0.2036
      5  C3        -6.5780    2.1980    2.6350 C.ar    1  UNL1       -0.0247
      6  C4        -5.3680    1.6140    3.0070 C.ar    1  UNL1       -0.0601
      7  C5        -4.6780    0.8050    2.1400 C.ar    1  UNL1       -0.0743
      8  C6        -5.1260    0.5160    0.8630 C.ar    1  UNL1       -0.1053
      9  N2        -4.5120   -0.2670   -0.0410 N.pl3   1  UNL1       -0.5353
     10  S1        -3.4870   -0.4670   -1.2700 S.O2    1  UNL1       -0.0589
     11  O1        -4.1600   -1.2020   -2.4300 O.2     1  UNL1       -0.1842
     12  O2        -2.9690    0.8190   -1.9120 O.2     1  UNL1       -0.1842
     13  C7        -2.0720   -1.4760   -0.8810 C.ar    1  UNL1        0.0733
     14  C8        -2.1590   -2.8530   -0.8460 C.ar    1  UNL1       -0.0382
     15  C9        -1.0140   -3.5990   -0.5590 C.ar    1  UNL1       -0.0593
     16  C10        0.1960   -2.9830   -0.3120 C.ar    1  UNL1       -0.0495
     17  C11        0.2980   -1.6210   -0.3430 C.ar    1  UNL1        0.0399
     18  C12        1.5380   -0.9310   -0.1100 C.2     1  UNL1        0.2602
     19  O3         1.6150    0.3190    0.0250 O.2     1  UNL1       -0.2687
     20  N3         2.7470   -1.6560   -0.0230 N.am    1  UNL1       -0.2301
     21  N4         3.9790   -0.9760    0.2040 N.am    1  UNL1       -0.2300
     22  C13        4.5930   -0.2210   -0.8200 C.2     1  UNL1        0.2629
     23  O4         3.9480   -0.2160   -1.9290 O.2     1  UNL1       -0.2686
     24  C14        5.8340    0.5210   -0.7330 C.ar    1  UNL1        0.0733
     25  C15        6.2840    1.1750   -1.8910 C.ar    1  UNL1       -0.0468
     26  C16        7.4430    1.9100   -1.9230 C.ar    1  UNL1       -0.0609
     27  C17        8.2180    2.0330   -0.8010 C.ar    1  UNL1       -0.0590
     28  C18        7.7970    1.3930    0.3640 C.ar    1  UNL1       -0.0257
     29  C19        6.6270    0.6630    0.3610 C.ar    1  UNL1        0.1355
     30  F2         6.2530    0.0570    1.5180 F       1  UNL1       -0.2047
     31  C20       -0.8650   -0.8900   -0.6320 C.ar    1  UNL1       -0.0261
     32 H          -7.7399    1.2570   -1.0667 H       1  UNL1        0.1424
     33 H          -6.4008    0.2607   -1.4157 H       1  UNL1        0.1424
     34 H          -7.0995    2.8077    3.2841 H       1  UNL1        0.0647
     35 H          -4.9856    1.7929    3.9487 H       1  UNL1        0.0618
     36 H          -3.7852    0.3937    2.4541 H       1  UNL1        0.0606
     37 H          -3.0582   -3.3250   -1.0295 H       1  UNL1        0.0636
     38 H          -1.0737   -4.6289   -0.5311 H       1  UNL1        0.0618
     39 H           1.0291   -3.5549   -0.1025 H       1  UNL1        0.0625
     40 H           2.7388   -2.6357   -0.1196 H       1  UNL1        0.1731
     41 H           4.4086   -1.0334    1.0880 H       1  UNL1        0.1731
     42 H           5.7209    1.1002   -2.7526 H       1  UNL1        0.0626
     43 H           7.7321    2.3730   -2.7988 H       1  UNL1        0.0618
     44 H           9.0901    2.5845   -0.8172 H       1  UNL1        0.0618
     45 H           8.3594    1.4654    1.2262 H       1  UNL1        0.0646
     46 H          -0.8043    0.1399   -0.6574 H       1  UNL1        0.0644
@<TRIPOS>UNITY_ATOM_ATTR
9 1
charge -1
@<TRIPOS>BOND
     1     1     2    1
     2     2     3   ar
     3     2     8   ar
     4     3     4    1
     5     3     5   ar
     6     5     6   ar
     7     6     7   ar
     8     7     8   ar
     9     8     9    1
    10     9    10    1
    11    10    11    2
    12    10    12    2
    13    10    13    1
    14    13    14   ar
    15    13    31   ar
    16    14    15   ar
    17    15    16   ar
    18    16    17   ar
    19    17    18    1
    20    17    31   ar
    21    18    19    2
    22    18    20   am
    23    20    21    1
    24    21    22   am
    25    22    23    2
    26    22    24    1
    27    24    25   ar
    28    24    29   ar
    29    25    26   ar
    30    26    27   ar
    31    27    28   ar
    32    28    29   ar
    33    29    30    1
    34     1    32    1
    35     1    33    1
    36     5    34    1
    37     6    35    1
    38     7    36    1
    39    14    37    1
    40    15    38    1
    41    16    39    1
    42    20    40    1
    43    21    41    1
    44    25    42    1
    45    26    43    1
    46    27    44    1
    47    28    45    1
    48    31    46    1
@<TRIPOS>MOLECULE
../data/bude_mols_rdkit_confs_charged/molecule_88.pdb
 46 48 0 0 0
SMALL
GASTEIGER

@<TRIPOS>ATOM
      1  N1        -3.9980   -0.5970    1.6700 N.pl3   1  UNL1       -0.3567
      2  C1        -5.1680   -0.1740    0.9980 C.ar    1  UNL1        0.0457
      3  C2        -6.0960   -1.1370    0.6520 C.ar    1  UNL1        0.1427
      4  F1        -5.9460   -2.4580    0.9130 F       1  UNL1       -0.2036
      5  C3        -7.2460   -0.7430    0.0040 C.ar    1  UNL1       -0.0247
      6  C4        -7.4500    0.5850   -0.2840 C.ar    1  UNL1       -0.0601
      7  C5        -6.4980    1.5390    0.0750 C.ar    1  UNL1       -0.0743
      8  C6        -5.3460    1.1560    0.7220 C.ar    1  UNL1       -0.1053
      9  N2        -4.3520    2.0900    1.0700 N.pl3   1  UNL1       -0.5353
     10  S1        -3.0760    2.5170   -0.0170 S.O2    1  UNL1       -0.0589
     11  O1        -2.2060    3.5190    0.7130 O.2     1  UNL1       -0.1842
     12  O2        -3.5830    3.1770   -1.2570 O.2     1  UNL1       -0.1842
     13  C7        -2.0960    1.1210   -0.4070 C.ar    1  UNL1        0.0733
     14  C8        -2.5760    0.1330   -1.2550 C.ar    1  UNL1       -0.0382
     15  C9        -1.7750   -0.9320   -1.5780 C.ar    1  UNL1       -0.0593
     16  C10       -0.4740   -1.0410   -1.0650 C.ar    1  UNL1       -0.0495
     17  C11        0.0240   -0.0750   -0.2250 C.ar    1  UNL1        0.0399
     18  C12        1.3720   -0.1300    0.3040 C.2     1  UNL1        0.2602
     19  O3         1.8230    0.8580    0.9430 O.2     1  UNL1       -0.2687
     20  N3         2.1620   -1.2840    0.0930 N.am    1  UNL1       -0.2301
     21  N4         3.4890   -1.2570    0.6220 N.am    1  UNL1       -0.2300
     22  C13        4.4930   -0.5930   -0.1390 C.2     1  UNL1        0.2629
     23  O4         4.0630   -0.1000   -1.2480 O.2     1  UNL1       -0.2686
     24  C14        5.8820   -0.4360    0.2160 C.ar    1  UNL1        0.0733
     25  C15        6.7080    0.1400   -0.7420 C.ar    1  UNL1       -0.0468
     26  C16        8.0390    0.3520   -0.5070 C.ar    1  UNL1       -0.0609
     27  C17        8.5670   -0.0090    0.6890 C.ar    1  UNL1       -0.0590
     28  C18        7.7530   -0.5910    1.6660 C.ar    1  UNL1       -0.0257
     29  C19        6.3890   -0.8070    1.4220 C.ar    1  UNL1        0.1355
     30  F2         5.6560   -1.3700    2.3980 F       1  UNL1       -0.2047
     31  C20       -0.8250    0.9910    0.0800 C.ar    1  UNL1       -0.0261
     32 H          -3.8638   -1.5513    1.8714 H       1  UNL1        0.1424
     33 H          -3.3176    0.0628    1.9364 H       1  UNL1        0.1424
     34 H          -7.9536   -1.4445   -0.2649 H       1  UNL1        0.0647
     35 H          -8.3126    0.8782   -0.7687 H       1  UNL1        0.0618
     36 H          -6.6582    2.5344   -0.1452 H       1  UNL1        0.0606
     37 H          -3.5310    0.1994   -1.6406 H       1  UNL1        0.0636
     38 H          -2.1351   -1.6652   -2.2087 H       1  UNL1        0.0618
     39 H           0.1121   -1.8512   -1.3200 H       1  UNL1        0.0625
     40 H           1.8151   -2.0663   -0.3937 H       1  UNL1        0.1731
     41 H           3.7021   -1.6831    1.4836 H       1  UNL1        0.1731
     42 H           6.3076    0.4144   -1.6527 H       1  UNL1        0.0626
     43 H           8.6347    0.7819   -1.2318 H       1  UNL1        0.0618
     44 H           9.5696    0.1458    0.8781 H       1  UNL1        0.0618
     45 H           8.1596   -0.8639    2.5744 H       1  UNL1        0.0646
     46 H          -0.4712    1.7261    0.7120 H       1  UNL1        0.0644
@<TRIPOS>UNITY_ATOM_ATTR
9 1
charge -1
@<TRIPOS>BOND
     1     1     2    1
     2     2     3   ar
     3     2     8   ar
     4     3     4    1
     5     3     5   ar
     6     5     6   ar
     7     6     7   ar
     8     7     8   ar
     9     8     9    1
    10     9    10    1
    11    10    11    2
    12    10    12    2
    13    10    13    1
    14    13    14   ar
    15    13    31   ar
    16    14    15   ar
    17    15    16   ar
    18    16    17   ar
    19    17    18    1
    20    17    31   ar
    21    18    19    2
    22    18    20   am
    23    20    21    1
    24    21    22   am
    25    22    23    2
    26    22    24    1
    27    24    25   ar
    28    24    29   ar
    29    25    26   ar
    30    26    27   ar
    31    27    28   ar
    32    28    29   ar
    33    29    30    1
    34     1    32    1
    35     1    33    1
    36     5    34    1
    37     6    35    1
    38     7    36    1
    39    14    37    1
    40    15    38    1
    41    16    39    1
    42    20    40    1
    43    21    41    1
    44    25    42    1
    45    26    43    1
    46    27    44    1
    47    28    45    1
    48    31    46    1
@<TRIPOS>MOLECULE
../data/bude_mols_rdkit_confs_charged/molecule_88.pdb
 46 48 0 0 0
SMALL
GASTEIGER

@<TRIPOS>ATOM
      1  N1        -3.7630    0.6730   -1.7530 N.pl3   1  UNL1       -0.3567
      2  C1        -3.8460   -0.2470   -0.6760 C.ar    1  UNL1        0.0457
      3  C2        -3.5590   -1.5910   -0.8620 C.ar    1  UNL1        0.1427
      4  F1        -3.1980   -2.0020   -2.1080 F       1  UNL1       -0.2036
      5  C3        -3.6350   -2.4960    0.1810 C.ar    1  UNL1       -0.0247
      6  C4        -4.0050   -2.0120    1.4020 C.ar    1  UNL1       -0.0601
      7  C5        -4.2910   -0.6920    1.6060 C.ar    1  UNL1       -0.0743
      8  C6        -4.2180    0.2350    0.5610 C.ar    1  UNL1       -0.1053
      9  N2        -4.5150    1.5920    0.7760 N.pl3   1  UNL1       -0.5353
     10  S1        -3.3890    2.7920    1.2340 S.O2    1  UNL1       -0.0589
     11  O1        -2.7660    2.5100    2.5730 O.2     1  UNL1       -0.1842
     12  O2        -4.1010    4.1050    1.3460 O.2     1  UNL1       -0.1842
     13  C7        -2.1760    2.9240   -0.0150 C.ar    1  UNL1        0.0733
     14  C8        -2.4290    3.8160   -1.0500 C.ar    1  UNL1       -0.0382
     15  C9        -1.5110    3.9590   -2.0540 C.ar    1  UNL1       -0.0593
     16  C10       -0.3650    3.2050   -1.9960 C.ar    1  UNL1       -0.0495
     17  C11       -0.0900    2.3090   -0.9760 C.ar    1  UNL1        0.0399
     18  C12        1.1540    1.5590   -1.0100 C.2     1  UNL1        0.2602
     19  O3         1.9420    1.7230   -1.9820 O.2     1  UNL1       -0.2687
     20  N3         1.5610    0.6420   -0.0210 N.am    1  UNL1       -0.2301
     21  N4         2.7890   -0.0680   -0.0990 N.am    1  UNL1       -0.2300
     22  C13        2.9980   -1.2070    0.6920 C.2     1  UNL1        0.2629
     23  O4         2.0570   -1.5470    1.4500 O.2     1  UNL1       -0.2686
     24  C14        4.2140   -2.0040    0.6890 C.ar    1  UNL1        0.0733
     25  C15        4.2800   -3.1160    1.5380 C.ar    1  UNL1       -0.0468
     26  C16        5.3870   -3.9070    1.5870 C.ar    1  UNL1       -0.0609
     27  C17        6.5030   -3.6600    0.8090 C.ar    1  UNL1       -0.0590
     28  C18        6.4710   -2.5740   -0.0360 C.ar    1  UNL1       -0.0257
     29  C19        5.3230   -1.7680   -0.0760 C.ar    1  UNL1        0.1355
     30  F2         5.3320   -0.6980   -0.9290 F       1  UNL1       -0.2047
     31  C20       -1.0200    2.1730    0.0300 C.ar    1  UNL1       -0.0261
     32 H          -3.5001    0.3600   -2.6486 H       1  UNL1        0.1424
     33 H          -3.9683    1.6244   -1.6047 H       1  UNL1        0.1424
     34 H          -3.4208   -3.4959    0.0416 H       1  UNL1        0.0647
     35 H          -4.0710   -2.6653    2.1982 H       1  UNL1        0.0618
     36 H          -4.5659   -0.3729    2.5481 H       1  UNL1        0.0606
     37 H          -3.3022    4.3660   -1.0611 H       1  UNL1        0.0636
     38 H          -1.6752    4.6153   -2.8333 H       1  UNL1        0.0618
     39 H           0.3285    3.3115   -2.7528 H       1  UNL1        0.0625
     40 H           0.9725    0.4875    0.7530 H       1  UNL1        0.1731
     41 H           3.4960    0.2407   -0.7107 H       1  UNL1        0.1731
     42 H           3.4720   -3.3406    2.1394 H       1  UNL1        0.0626
     43 H           5.3934   -4.7175    2.2258 H       1  UNL1        0.0618
     44 H           7.3335   -4.2705    0.8602 H       1  UNL1        0.0618
     45 H           7.2830   -2.3547   -0.6340 H       1  UNL1        0.0646
     46 H          -0.8541    1.5166    0.8089 H       1  UNL1        0.0644
@<TRIPOS>UNITY_ATOM_ATTR
9 1
charge -1
@<TRIPOS>BOND
     1     1     2    1
     2     2     3   ar
     3     2     8   ar
     4     3     4    1
     5     3     5   ar
     6     5     6   ar
     7     6     7   ar
     8     7     8   ar
     9     8     9    1
    10     9    10    1
    11    10    11    2
    12    10    12    2
    13    10    13    1
    14    13    14   ar
    15    13    31   ar
    16    14    15   ar
    17    15    16   ar
    18    16    17   ar
    19    17    18    1
    20    17    31   ar
    21    18    19    2
    22    18    20   am
    23    20    21    1
    24    21    22   am
    25    22    23    2
    26    22    24    1
    27    24    25   ar
    28    24    29   ar
    29    25    26   ar
    30    26    27   ar
    31    27    28   ar
    32    28    29   ar
    33    29    30    1
    34     1    32    1
    35     1    33    1
    36     5    34    1
    37     6    35    1
    38     7    36    1
    39    14    37    1
    40    15    38    1
    41    16    39    1
    42    20    40    1
    43    21    41    1
    44    25    42    1
    45    26    43    1
    46    27    44    1
    47    28    45    1
    48    31    46    1
@<TRIPOS>MOLECULE
../data/bude_mols_rdkit_confs_charged/molecule_88.pdb
 46 48 0 0 0
SMALL
GASTEIGER

@<TRIPOS>ATOM
      1  N1         6.0460    3.3200    0.5900 N.pl3   1  UNL1       -0.3567
      2  C1         5.1470    3.1890    1.6710 C.ar    1  UNL1        0.0457
      3  C2         5.4410    3.8010    2.8630 C.ar    1  UNL1        0.1427
      4  F1         6.5660    4.5420    3.0480 F       1  UNL1       -0.2036
      5  C3         4.6030    3.6870    3.9300 C.ar    1  UNL1       -0.0247
      6  C4         3.4480    2.9460    3.7970 C.ar    1  UNL1       -0.0601
      7  C5         3.1570    2.3380    2.6090 C.ar    1  UNL1       -0.0743
      8  C6         3.9890    2.4220    1.4740 C.ar    1  UNL1       -0.1053
      9  N2         3.7360    1.8670    0.3240 N.pl3   1  UNL1       -0.5353
     10  S1         3.4960    1.0790   -1.0340 S.O2    1  UNL1       -0.0589
     11  O1         2.6970    1.9010   -2.0790 O.2     1  UNL1       -0.1842
     12  O2         4.7370    0.6760   -1.8320 O.2     1  UNL1       -0.1842
     13  C7         2.5800   -0.4430   -0.8970 C.ar    1  UNL1        0.0733
     14  C8         3.2380   -1.6540   -0.8860 C.ar    1  UNL1       -0.0382
     15  C9         2.5600   -2.8450   -0.7850 C.ar    1  UNL1       -0.0593
     16  C10        1.1960   -2.8880   -0.6900 C.ar    1  UNL1       -0.0495
     17  C11        0.5370   -1.6810   -0.7000 C.ar    1  UNL1        0.0399
     18  C12       -0.9170   -1.7090   -0.5940 C.2     1  UNL1        0.2602
     19  O3        -1.4040   -0.8020    0.1660 O.2     1  UNL1       -0.2687
     20  N3        -1.7460   -2.6190   -1.2420 N.am    1  UNL1       -0.2301
     21  N4        -3.1690   -2.5900   -1.0850 N.am    1  UNL1       -0.2300
     22  C13       -3.8800   -1.4220   -1.4020 C.2     1  UNL1        0.2629
     23  O4        -3.2290   -0.3990   -1.8380 O.2     1  UNL1       -0.2686
     24  C14       -5.3310   -1.3090   -1.2630 C.ar    1  UNL1        0.0733
     25  C15       -5.9750   -0.2190   -1.8870 C.ar    1  UNL1       -0.0468
     26  C16       -7.3260   -0.0390   -1.8270 C.ar    1  UNL1       -0.0609
     27  C17       -8.1330   -0.9290   -1.1410 C.ar    1  UNL1       -0.0590
     28  C18       -7.4890   -1.9840   -0.5390 C.ar    1  UNL1       -0.0257
     29  C19       -6.1180   -2.1870   -0.5870 C.ar    1  UNL1        0.1355
     30  F2        -5.5790   -3.2520    0.0560 F       1  UNL1       -0.2047
     31  C20        1.2070   -0.4620   -0.8020 C.ar    1  UNL1       -0.0261
     32 H           6.8681    3.8514    0.6951 H       1  UNL1        0.1424
     33 H           5.8507    2.8799   -0.2687 H       1  UNL1        0.1424
     34 H           4.8290    4.1484    4.8250 H       1  UNL1        0.0647
     35 H           2.8023    2.8506    4.5963 H       1  UNL1        0.0618
     36 H           2.2852    1.7902    2.5388 H       1  UNL1        0.0606
     37 H           4.2676   -1.6667   -0.9555 H       1  UNL1        0.0636
     38 H           3.0929   -3.7287   -0.7807 H       1  UNL1        0.0618
     39 H           0.6865   -3.7823   -0.6145 H       1  UNL1        0.0625
     40 H          -1.3429   -3.3023   -1.8250 H       1  UNL1        0.1731
     41 H          -3.6465   -3.3857   -0.7562 H       1  UNL1        0.1731
     42 H          -5.4040    0.4657   -2.4068 H       1  UNL1        0.0626
     43 H          -7.7522    0.7730   -2.3003 H       1  UNL1        0.0618
     44 H          -9.1564   -0.8083   -1.0846 H       1  UNL1        0.0618
     45 H          -8.0615   -2.6674   -0.0191 H       1  UNL1        0.0646
     46 H           0.6753    0.4225   -0.8062 H       1  UNL1        0.0644
@<TRIPOS>UNITY_ATOM_ATTR
9 1
charge -1
@<TRIPOS>BOND
     1     1     2    1
     2     2     3   ar
     3     2     8   ar
     4     3     4    1
     5     3     5   ar
     6     5     6   ar
     7     6     7   ar
     8     7     8   ar
     9     8     9    1
    10     9    10    1
    11    10    11    2
    12    10    12    2
    13    10    13    1
    14    13    14   ar
    15    13    31   ar
    16    14    15   ar
    17    15    16   ar
    18    16    17   ar
    19    17    18    1
    20    17    31   ar
    21    18    19    2
    22    18    20   am
    23    20    21    1
    24    21    22   am
    25    22    23    2
    26    22    24    1
    27    24    25   ar
    28    24    29   ar
    29    25    26   ar
    30    26    27   ar
    31    27    28   ar
    32    28    29   ar
    33    29    30    1
    34     1    32    1
    35     1    33    1
    36     5    34    1
    37     6    35    1
    38     7    36    1
    39    14    37    1
    40    15    38    1
    41    16    39    1
    42    20    40    1
    43    21    41    1
    44    25    42    1
    45    26    43    1
    46    27    44    1
    47    28    45    1
    48    31    46    1
@<TRIPOS>MOLECULE
../data/bude_mols_rdkit_confs_charged/molecule_88.pdb
 46 48 0 0 0
SMALL
GASTEIGER

@<TRIPOS>ATOM
      1  N1        -3.4230    0.3070    2.1250 N.pl3   1  UNL1       -0.3567
      2  C1        -4.7540    0.2150    1.6320 C.ar    1  UNL1        0.0457
      3  C2        -5.6910    1.2210    1.8530 C.ar    1  UNL1        0.1427
      4  F1        -5.2980    2.3320    2.5660 F       1  UNL1       -0.2036
      5  C3        -6.9830    1.1520    1.3930 C.ar    1  UNL1       -0.0247
      6  C4        -7.3890    0.0490    0.6780 C.ar    1  UNL1       -0.0601
      7  C5        -6.4860   -0.9640    0.4420 C.ar    1  UNL1       -0.0743
      8  C6        -5.1730   -0.8780    0.9180 C.ar    1  UNL1       -0.1053
      9  N2        -4.2730   -1.9610    0.6280 N.pl3   1  UNL1       -0.5353
     10  S1        -3.3610   -1.8780   -0.8370 S.O2    1  UNL1       -0.0589
     11  O1        -4.2780   -1.7910   -2.0280 O.2     1  UNL1       -0.1842
     12  O2        -2.4970   -3.1220   -0.9300 O.2     1  UNL1       -0.1842
     13  C7        -2.3140   -0.4820   -0.8370 C.ar    1  UNL1        0.0733
     14  C8        -2.8120    0.7520   -1.1340 C.ar    1  UNL1       -0.0382
     15  C9        -2.0190    1.8490   -1.1520 C.ar    1  UNL1       -0.0593
     16  C10       -0.6750    1.7010   -0.8590 C.ar    1  UNL1       -0.0495
     17  C11       -0.1100    0.4770   -0.5510 C.ar    1  UNL1        0.0399
     18  C12        1.3190    0.3490   -0.2510 C.2     1  UNL1        0.2602
     19  O3         1.9630    1.3760    0.0750 O.2     1  UNL1       -0.2687
     20  N3         2.0210   -0.8710   -0.3100 N.am    1  UNL1       -0.2301
     21  N4         3.3950   -1.0280   -0.0280 N.am    1  UNL1       -0.2300
     22  C13        4.4040   -0.3300   -0.6910 C.2     1  UNL1        0.2629
     23  O4         3.9500    0.4780   -1.5930 O.2     1  UNL1       -0.2686
     24  C14        5.8340   -0.4160   -0.4830 C.ar    1  UNL1        0.0733
     25  C15        6.6950    0.3870   -1.2520 C.ar    1  UNL1       -0.0468
     26  C16        8.0570    0.3660   -1.1200 C.ar    1  UNL1       -0.0609
     27  C17        8.6170   -0.4820   -0.1880 C.ar    1  UNL1       -0.0590
     28  C18        7.8300   -1.2850    0.5870 C.ar    1  UNL1       -0.0257
     29  C19        6.4270   -1.2330    0.4180 C.ar    1  UNL1        0.1355
     30  F2         5.6940   -2.0450    1.2040 F       1  UNL1       -0.2047
     31  C20       -0.9620   -0.6050   -0.5480 C.ar    1  UNL1       -0.0261
     32 H          -3.1409    1.1000    2.6357 H       1  UNL1        0.1424
     33 H          -2.7838   -0.4223    1.9555 H       1  UNL1        0.1424
     34 H          -7.6442    1.9215    1.5821 H       1  UNL1        0.0647
     35 H          -8.3559   -0.0184    0.3237 H       1  UNL1        0.0618
     36 H          -6.7813   -1.7962   -0.0922 H       1  UNL1        0.0606
     37 H          -3.8162    0.8520   -1.3500 H       1  UNL1        0.0636
     38 H          -2.4091    2.7769   -1.3797 H       1  UNL1        0.0618
     39 H          -0.0702    2.5371   -0.8708 H       1  UNL1        0.0625
     40 H           1.5147   -1.6751   -0.5675 H       1  UNL1        0.1731
     41 H           3.6555   -1.6655    0.6756 H       1  UNL1        0.1731
     42 H           6.2794    1.0233   -1.9501 H       1  UNL1        0.0626
     43 H           8.6525    0.9721   -1.7057 H       1  UNL1        0.0618
     44 H           9.6424   -0.5101   -0.0749 H       1  UNL1        0.0618
     45 H           8.2518   -1.9187    1.2838 H       1  UNL1        0.0646
     46 H          -0.5827   -1.5381   -0.3234 H       1  UNL1        0.0644
@<TRIPOS>UNITY_ATOM_ATTR
9 1
charge -1
@<TRIPOS>BOND
     1     1     2    1
     2     2     3   ar
     3     2     8   ar
     4     3     4    1
     5     3     5   ar
     6     5     6   ar
     7     6     7   ar
     8     7     8   ar
     9     8     9    1
    10     9    10    1
    11    10    11    2
    12    10    12    2
    13    10    13    1
    14    13    14   ar
    15    13    31   ar
    16    14    15   ar
    17    15    16   ar
    18    16    17   ar
    19    17    18    1
    20    17    31   ar
    21    18    19    2
    22    18    20   am
    23    20    21    1
    24    21    22   am
    25    22    23    2
    26    22    24    1
    27    24    25   ar
    28    24    29   ar
    29    25    26   ar
    30    26    27   ar
    31    27    28   ar
    32    28    29   ar
    33    29    30    1
    34     1    32    1
    35     1    33    1
    36     5    34    1
    37     6    35    1
    38     7    36    1
    39    14    37    1
    40    15    38    1
    41    16    39    1
    42    20    40    1
    43    21    41    1
    44    25    42    1
    45    26    43    1
    46    27    44    1
    47    28    45    1
    48    31    46    1
@<TRIPOS>MOLECULE
../data/bude_mols_rdkit_confs_charged/molecule_88.pdb
 46 48 0 0 0
SMALL
GASTEIGER

@<TRIPOS>ATOM
      1  N1        -6.6830   -1.3640    1.3490 N.pl3   1  UNL1       -0.3567
      2  C1        -6.1660   -0.1160    0.9020 C.ar    1  UNL1        0.0457
      3  C2        -6.9570    0.8220    0.2850 C.ar    1  UNL1        0.1427
      4  F1        -8.2700    0.5530    0.0950 F       1  UNL1       -0.2036
      5  C3        -6.4370    2.0250   -0.1410 C.ar    1  UNL1       -0.0247
      6  C4        -5.1010    2.2720    0.0650 C.ar    1  UNL1       -0.0601
      7  C5        -4.2880    1.3560    0.6780 C.ar    1  UNL1       -0.0743
      8  C6        -4.8320    0.1470    1.1010 C.ar    1  UNL1       -0.1053
      9  N2        -3.9860   -0.8160    1.7420 N.pl3   1  UNL1       -0.5353
     10  S1        -3.1940   -1.9700    0.7300 S.O2    1  UNL1       -0.0589
     11  O1        -2.4330   -2.9290    1.6070 O.2     1  UNL1       -0.1842
     12  O2        -4.2740   -2.7240   -0.0320 O.2     1  UNL1       -0.1842
     13  C7        -2.1380   -1.1310   -0.3800 C.ar    1  UNL1        0.0733
     14  C8        -2.6290   -0.7310   -1.5990 C.ar    1  UNL1       -0.0382
     15  C9        -1.7970   -0.0700   -2.4760 C.ar    1  UNL1       -0.0593
     16  C10       -0.4610    0.1920   -2.1280 C.ar    1  UNL1       -0.0495
     17  C11        0.0310   -0.2060   -0.9110 C.ar    1  UNL1        0.0399
     18  C12        1.4130    0.0750   -0.5730 C.2     1  UNL1        0.2602
     19  O3         1.8850   -0.2590    0.5720 O.2     1  UNL1       -0.2687
     20  N3         2.3470    0.7170   -1.4250 N.am    1  UNL1       -0.2301
     21  N4         3.6850    0.9540   -1.0090 N.am    1  UNL1       -0.2300
     22  C13        4.4700   -0.1400   -0.6400 C.2     1  UNL1        0.2629
     23  O4         3.9480   -1.3130   -0.6900 O.2     1  UNL1       -0.2686
     24  C14        5.8510   -0.0500   -0.1980 C.ar    1  UNL1        0.0733
     25  C15        6.4640   -1.1890    0.3450 C.ar    1  UNL1       -0.0468
     26  C16        7.7620   -1.1610    0.7950 C.ar    1  UNL1       -0.0609
     27  C17        8.5460   -0.0320    0.7460 C.ar    1  UNL1       -0.0590
     28  C18        7.9570    1.0890    0.2150 C.ar    1  UNL1       -0.0257
     29  C19        6.6300    1.0770   -0.2490 C.ar    1  UNL1        0.1355
     30  F2         6.1100    2.2150   -0.7700 F       1  UNL1       -0.2047
     31  C20       -0.8150   -0.8610   -0.0580 C.ar    1  UNL1       -0.0261
     32 H          -7.6352   -1.5774    1.2187 H       1  UNL1        0.1424
     33 H          -6.0885   -2.0141    1.7886 H       1  UNL1        0.1424
     34 H          -7.0375    2.7248   -0.6044 H       1  UNL1        0.0647
     35 H          -4.7005    3.1695   -0.2498 H       1  UNL1        0.0618
     36 H          -3.2868    1.5594    0.8240 H       1  UNL1        0.0606
     37 H          -3.6100   -0.9234   -1.8550 H       1  UNL1        0.0636
     38 H          -2.1571    0.2345   -3.3939 H       1  UNL1        0.0618
     39 H           0.1541    0.6871   -2.7925 H       1  UNL1        0.0625
     40 H           2.0629    1.0043   -2.3228 H       1  UNL1        0.1731
     41 H           4.0498    1.8680   -0.9817 H       1  UNL1        0.1731
     42 H           5.9276   -2.0684    0.4080 H       1  UNL1        0.0626
     43 H           8.1666   -2.0256    1.1872 H       1  UNL1        0.0618
     44 H           9.5196   -0.0276    1.0882 H       1  UNL1        0.0618
     45 H           8.5026    1.9629    0.1550 H       1  UNL1        0.0646
     46 H          -0.4556   -1.1660    0.8601 H       1  UNL1        0.0644
@<TRIPOS>UNITY_ATOM_ATTR
9 1
charge -1
@<TRIPOS>BOND
     1     1     2    1
     2     2     3   ar
     3     2     8   ar
     4     3     4    1
     5     3     5   ar
     6     5     6   ar
     7     6     7   ar
     8     7     8   ar
     9     8     9    1
    10     9    10    1
    11    10    11    2
    12    10    12    2
    13    10    13    1
    14    13    14   ar
    15    13    31   ar
    16    14    15   ar
    17    15    16   ar
    18    16    17   ar
    19    17    18    1
    20    17    31   ar
    21    18    19    2
    22    18    20   am
    23    20    21    1
    24    21    22   am
    25    22    23    2
    26    22    24    1
    27    24    25   ar
    28    24    29   ar
    29    25    26   ar
    30    26    27   ar
    31    27    28   ar
    32    28    29   ar
    33    29    30    1
    34     1    32    1
    35     1    33    1
    36     5    34    1
    37     6    35    1
    38     7    36    1
    39    14    37    1
    40    15    38    1
    41    16    39    1
    42    20    40    1
    43    21    41    1
    44    25    42    1
    45    26    43    1
    46    27    44    1
    47    28    45    1
    48    31    46    1
@<TRIPOS>MOLECULE
../data/bude_mols_rdkit_confs_charged/molecule_88.pdb
 46 48 0 0 0
SMALL
GASTEIGER

@<TRIPOS>ATOM
      1  N1        -5.3580   -1.8320    1.2210 N.pl3   1  UNL1       -0.3567
      2  C1        -4.6990   -0.5950    1.4640 C.ar    1  UNL1        0.0457
      3  C2        -4.2690   -0.2530    2.7450 C.ar    1  UNL1        0.1427
      4  F1        -4.4600   -1.0760    3.7900 F       1  UNL1       -0.2036
      5  C3        -3.6340    0.9750    2.8900 C.ar    1  UNL1       -0.0247
      6  C4        -3.4310    1.8250    1.8340 C.ar    1  UNL1       -0.0601
      7  C5        -3.8590    1.4900    0.5490 C.ar    1  UNL1       -0.0743
      8  C6        -4.4910    0.2630    0.4120 C.ar    1  UNL1       -0.1053
      9  N2        -4.9490   -0.1260   -0.8730 N.pl3   1  UNL1       -0.5353
     10  S1        -3.9710   -1.0130   -1.9770 S.O2    1  UNL1       -0.0589
     11  O1        -4.7430   -1.2530   -3.2420 O.2     1  UNL1       -0.1842
     12  O2        -3.5990   -2.3150   -1.3660 O.2     1  UNL1       -0.1842
     13  C7        -2.5620   -0.0430   -2.3610 C.ar    1  UNL1        0.0733
     14  C8        -2.6360    0.7960   -3.4510 C.ar    1  UNL1       -0.0382
     15  C9        -1.5220    1.5530   -3.7420 C.ar    1  UNL1       -0.0593
     16  C10       -0.3950    1.4510   -2.9530 C.ar    1  UNL1       -0.0495
     17  C11       -0.3270    0.6120   -1.8660 C.ar    1  UNL1        0.0399
     18  C12        0.8870    0.5160   -1.0410 C.2     1  UNL1        0.2602
     19  O3         0.7940   -0.1460    0.0450 O.2     1  UNL1       -0.2687
     20  N3         2.1280    1.1020   -1.3760 N.am    1  UNL1       -0.2301
     21  N4         3.2670    0.9680   -0.5290 N.am    1  UNL1       -0.2300
     22  C13        3.7440   -0.2850   -0.1180 C.2     1  UNL1        0.2629
     23  O4         3.0730   -1.2820   -0.5670 O.2     1  UNL1       -0.2686
     24  C14        4.8800   -0.5670    0.7370 C.ar    1  UNL1        0.0733
     25  C15        5.1560   -1.8910    1.1150 C.ar    1  UNL1       -0.0468
     26  C16        6.2050   -2.2370    1.9270 C.ar    1  UNL1       -0.0609
     27  C17        7.0580   -1.2720    2.4200 C.ar    1  UNL1       -0.0590
     28  C18        6.8170    0.0290    2.0710 C.ar    1  UNL1       -0.0257
     29  C19        5.7360    0.3730    1.2360 C.ar    1  UNL1        0.1355
     30  F2         5.5540    1.6860    0.9210 F       1  UNL1       -0.2047
     31  C20       -1.4430   -0.1470   -1.5730 C.ar    1  UNL1       -0.0261
     32 H          -5.5158   -2.4597    1.9628 H       1  UNL1        0.1424
     33 H          -5.6562   -2.0604    0.3110 H       1  UNL1        0.1424
     34 H          -3.3036    1.2568    3.8262 H       1  UNL1        0.0647
     35 H          -2.9543    2.7266    1.9918 H       1  UNL1        0.0618
     36 H          -3.7134    2.1203   -0.2551 H       1  UNL1        0.0606
     37 H          -3.4908    0.8552   -4.0262 H       1  UNL1        0.0636
     38 H          -1.5308    2.1957   -4.5494 H       1  UNL1        0.0618
     39 H           0.4287    2.0266   -3.1877 H       1  UNL1        0.0625
     40 H           2.2081    1.6143   -2.2129 H       1  UNL1        0.1731
     41 H           3.7327    1.7797   -0.2234 H       1  UNL1        0.1731
     42 H           4.5390   -2.6402    0.7644 H       1  UNL1        0.0626
     43 H           6.3576   -3.2280    2.1714 H       1  UNL1        0.0618
     44 H           7.8509   -1.5225    3.0312 H       1  UNL1        0.0618
     45 H           7.4389    0.7721    2.4262 H       1  UNL1        0.0646
     46 H          -1.4356   -0.7894   -0.7653 H       1  UNL1        0.0644
@<TRIPOS>UNITY_ATOM_ATTR
9 1
charge -1
@<TRIPOS>BOND
     1     1     2    1
     2     2     3   ar
     3     2     8   ar
     4     3     4    1
     5     3     5   ar
     6     5     6   ar
     7     6     7   ar
     8     7     8   ar
     9     8     9    1
    10     9    10    1
    11    10    11    2
    12    10    12    2
    13    10    13    1
    14    13    14   ar
    15    13    31   ar
    16    14    15   ar
    17    15    16   ar
    18    16    17   ar
    19    17    18    1
    20    17    31   ar
    21    18    19    2
    22    18    20   am
    23    20    21    1
    24    21    22   am
    25    22    23    2
    26    22    24    1
    27    24    25   ar
    28    24    29   ar
    29    25    26   ar
    30    26    27   ar
    31    27    28   ar
    32    28    29   ar
    33    29    30    1
    34     1    32    1
    35     1    33    1
    36     5    34    1
    37     6    35    1
    38     7    36    1
    39    14    37    1
    40    15    38    1
    41    16    39    1
    42    20    40    1
    43    21    41    1
    44    25    42    1
    45    26    43    1
    46    27    44    1
    47    28    45    1
    48    31    46    1
@<TRIPOS>MOLECULE
../data/bude_mols_rdkit_confs_charged/molecule_88.pdb
 46 48 0 0 0
SMALL
GASTEIGER

@<TRIPOS>ATOM
      1  N1        -3.2740   -0.5230    1.0330 N.pl3   1  UNL1       -0.3567
      2  C1        -4.5610    0.0990    1.0600 C.ar    1  UNL1        0.0457
      3  C2        -5.5620   -0.4490    1.8410 C.ar    1  UNL1        0.1427
      4  F1        -5.3400   -1.5570    2.5720 F       1  UNL1       -0.2036
      5  C3        -6.8260    0.1200    1.9000 C.ar    1  UNL1       -0.0247
      6  C4        -7.0620    1.2540    1.1560 C.ar    1  UNL1       -0.0601
      7  C5        -6.0920    1.8330    0.3650 C.ar    1  UNL1       -0.0743
      8  C6        -4.8260    1.2380    0.3250 C.ar    1  UNL1       -0.1053
      9  N2        -3.7860    1.7870   -0.4620 N.pl3   1  UNL1       -0.5353
     10  S1        -3.5640    1.3040   -2.0730 S.O2    1  UNL1       -0.0589
     11  O1        -4.7240    0.4730   -2.5850 O.2     1  UNL1       -0.1842
     12  O2        -3.5030    2.5520   -2.9420 O.2     1  UNL1       -0.1842
     13  C7        -2.0910    0.4060   -2.3520 C.ar    1  UNL1        0.0733
     14  C8        -1.9460   -0.2180   -3.5800 C.ar    1  UNL1       -0.0382
     15  C9        -0.8210   -0.9600   -3.8900 C.ar    1  UNL1       -0.0593
     16  C10        0.1730   -1.0710   -2.9390 C.ar    1  UNL1       -0.0495
     17  C11        0.0690   -0.4680   -1.7060 C.ar    1  UNL1        0.0399
     18  C12        1.1360   -0.6040   -0.7210 C.2     1  UNL1        0.2602
     19  O3         0.8870   -0.3760    0.4980 O.2     1  UNL1       -0.2687
     20  N3         2.4580   -0.9830   -1.0690 N.am    1  UNL1       -0.2301
     21  N4         3.4460   -1.0950   -0.0550 N.am    1  UNL1       -0.2300
     22  C13        4.3690   -0.0490    0.1660 C.2     1  UNL1        0.2629
     23  O4         4.2180    0.9690   -0.6210 O.2     1  UNL1       -0.2686
     24  C14        5.4210   -0.0000    1.1410 C.ar    1  UNL1        0.0733
     25  C15        6.2060    1.1580    1.2310 C.ar    1  UNL1       -0.0468
     26  C16        7.2280    1.3200    2.1110 C.ar    1  UNL1       -0.0609
     27  C17        7.5430    0.3100    2.9830 C.ar    1  UNL1       -0.0590
     28  C18        6.8070   -0.8420    2.9360 C.ar    1  UNL1       -0.0257
     29  C19        5.7560   -0.9880    2.0190 C.ar    1  UNL1        0.1355
     30  F2         5.0580   -2.1420    2.0040 F       1  UNL1       -0.2047
     31  C20       -1.0760    0.2620   -1.4500 C.ar    1  UNL1       -0.0261
     32 H          -3.1082   -1.3345    1.5652 H       1  UNL1        0.1424
     33 H          -2.5536   -0.1399    0.4822 H       1  UNL1        0.1424
     34 H          -7.5681   -0.2950    2.4849 H       1  UNL1        0.0647
     35 H          -7.9984    1.6863    1.1915 H       1  UNL1        0.0618
     36 H          -6.2946    2.6834   -0.1835 H       1  UNL1        0.0606
     37 H          -2.6971   -0.1268   -4.2819 H       1  UNL1        0.0636
     38 H          -0.7271   -1.4192   -4.8094 H       1  UNL1        0.0618
     39 H           1.0179   -1.6215   -3.1584 H       1  UNL1        0.0625
     40 H           2.6892   -1.1673   -2.0080 H       1  UNL1        0.1731
     41 H           3.4879   -1.9082    0.4983 H       1  UNL1        0.1731
     42 H           5.9940    1.9368    0.5879 H       1  UNL1        0.0626
     43 H           7.7658    2.2007    2.1232 H       1  UNL1        0.0618
     44 H           8.3163    0.4163    3.6581 H       1  UNL1        0.0618
     45 H           7.0281   -1.6141    3.5841 H       1  UNL1        0.0646
     46 H          -1.1687    0.7216   -0.5306 H       1  UNL1        0.0644
@<TRIPOS>UNITY_ATOM_ATTR
9 1
charge -1
@<TRIPOS>BOND
     1     1     2    1
     2     2     3   ar
     3     2     8   ar
     4     3     4    1
     5     3     5   ar
     6     5     6   ar
     7     6     7   ar
     8     7     8   ar
     9     8     9    1
    10     9    10    1
    11    10    11    2
    12    10    12    2
    13    10    13    1
    14    13    14   ar
    15    13    31   ar
    16    14    15   ar
    17    15    16   ar
    18    16    17   ar
    19    17    18    1
    20    17    31   ar
    21    18    19    2
    22    18    20   am
    23    20    21    1
    24    21    22   am
    25    22    23    2
    26    22    24    1
    27    24    25   ar
    28    24    29   ar
    29    25    26   ar
    30    26    27   ar
    31    27    28   ar
    32    28    29   ar
    33    29    30    1
    34     1    32    1
    35     1    33    1
    36     5    34    1
    37     6    35    1
    38     7    36    1
    39    14    37    1
    40    15    38    1
    41    16    39    1
    42    20    40    1
    43    21    41    1
    44    25    42    1
    45    26    43    1
    46    27    44    1
    47    28    45    1
    48    31    46    1
@<TRIPOS>MOLECULE
../data/bude_mols_rdkit_confs_charged/molecule_88.pdb
 46 48 0 0 0
SMALL
GASTEIGER

@<TRIPOS>ATOM
      1  N1         3.4500   -1.5850    0.5350 N.pl3   1  UNL1       -0.3567
      2  C1         4.7120   -0.9730    0.5020 C.ar    1  UNL1        0.0457
      3  C2         5.7370   -1.5830   -0.1900 C.ar    1  UNL1        0.1427
      4  F1         5.5190   -2.7600   -0.8260 F       1  UNL1       -0.2036
      5  C3         7.0060   -1.0440   -0.2690 C.ar    1  UNL1       -0.0247
      6  C4         7.2520    0.1490    0.3700 C.ar    1  UNL1       -0.0601
      7  C5         6.2190    0.7630    1.0660 C.ar    1  UNL1       -0.0743
      8  C6         4.9600    0.2070    1.1320 C.ar    1  UNL1       -0.1053
      9  N2         3.9590    0.9070    1.8660 N.pl3   1  UNL1       -0.5353
     10  S1         2.9990    2.0690    0.9850 S.O2    1  UNL1       -0.0589
     11  O1         2.1550    2.8610    1.9410 O.2     1  UNL1       -0.1842
     12  O2         3.9730    3.0100    0.3450 O.2     1  UNL1       -0.1842
     13  C7         2.0800    1.3240   -0.2890 C.ar    1  UNL1        0.0733
     14  C8         2.7220    0.9950   -1.4650 C.ar    1  UNL1       -0.0382
     15  C9         2.0010    0.4120   -2.4800 C.ar    1  UNL1       -0.0593
     16  C10        0.6760    0.1620   -2.3350 C.ar    1  UNL1       -0.0495
     17  C11        0.0280    0.4830   -1.1750 C.ar    1  UNL1        0.0399
     18  C12       -1.4200    0.2080   -1.0190 C.2     1  UNL1        0.2602
     19  O3        -1.9350   -0.8430   -1.4880 O.2     1  UNL1       -0.2687
     20  N3        -2.2770    1.1130   -0.3440 N.am    1  UNL1       -0.2301
     21  N4        -3.6630    0.8990   -0.1670 N.am    1  UNL1       -0.2300
     22  C13       -4.1690   -0.1740    0.5770 C.2     1  UNL1        0.2629
     23  O4        -3.2830   -0.9440    1.0840 O.2     1  UNL1       -0.2686
     24  C14       -5.5760   -0.4480    0.7990 C.ar    1  UNL1        0.0733
     25  C15       -5.8690   -1.5790    1.5870 C.ar    1  UNL1       -0.0468
     26  C16       -7.1580   -1.9470    1.8760 C.ar    1  UNL1       -0.0609
     27  C17       -8.2300   -1.2260    1.4080 C.ar    1  UNL1       -0.0590
     28  C18       -7.9270   -0.1190    0.6360 C.ar    1  UNL1       -0.0257
     29  C19       -6.6310    0.2620    0.3380 C.ar    1  UNL1        0.1355
     30  F2        -6.4180    1.3610   -0.4260 F       1  UNL1       -0.2047
     31  C20        0.7350    1.0650   -0.1550 C.ar    1  UNL1       -0.0261
     32 H           3.3049   -2.4394    0.0679 H       1  UNL1        0.1424
     33 H           2.7095   -1.1601    1.0253 H       1  UNL1        0.1424
     34 H           7.7522   -1.5250   -0.7951 H       1  UNL1        0.0647
     35 H           8.1887    0.5806    0.3328 H       1  UNL1        0.0618
     36 H           6.3989    1.6586    1.5461 H       1  UNL1        0.0606
     37 H           3.7299    1.1840   -1.5812 H       1  UNL1        0.0636
     38 H           2.4736    0.1617   -3.3626 H       1  UNL1        0.0618
     39 H           0.1513   -0.2752   -3.1087 H       1  UNL1        0.0625
     40 H          -1.8844    1.9380    0.0226 H       1  UNL1        0.1731
     41 H          -4.2963    1.5279   -0.5824 H       1  UNL1        0.1731
     42 H          -5.0909   -2.1468    1.9573 H       1  UNL1        0.0626
     43 H          -7.3265   -2.7830    2.4572 H       1  UNL1        0.0618
     44 H          -9.2036   -1.4945    1.6200 H       1  UNL1        0.0618
     45 H          -8.7043    0.4494    0.2649 H       1  UNL1        0.0646
     46 H           0.2531    1.3118    0.7236 H       1  UNL1        0.0644
@<TRIPOS>UNITY_ATOM_ATTR
9 1
charge -1
@<TRIPOS>BOND
     1     1     2    1
     2     2     3   ar
     3     2     8   ar
     4     3     4    1
     5     3     5   ar
     6     5     6   ar
     7     6     7   ar
     8     7     8   ar
     9     8     9    1
    10     9    10    1
    11    10    11    2
    12    10    12    2
    13    10    13    1
    14    13    14   ar
    15    13    31   ar
    16    14    15   ar
    17    15    16   ar
    18    16    17   ar
    19    17    18    1
    20    17    31   ar
    21    18    19    2
    22    18    20   am
    23    20    21    1
    24    21    22   am
    25    22    23    2
    26    22    24    1
    27    24    25   ar
    28    24    29   ar
    29    25    26   ar
    30    26    27   ar
    31    27    28   ar
    32    28    29   ar
    33    29    30    1
    34     1    32    1
    35     1    33    1
    36     5    34    1
    37     6    35    1
    38     7    36    1
    39    14    37    1
    40    15    38    1
    41    16    39    1
    42    20    40    1
    43    21    41    1
    44    25    42    1
    45    26    43    1
    46    27    44    1
    47    28    45    1
    48    31    46    1
