@<TRIPOS>MOLECULE
../data/bude_mols_rdkit_confs_charged/molecule_35.pdb
 37 39 0 0 0
SMALL
GASTEIGER

@<TRIPOS>ATOM
      1  O1        -1.2020   -2.1740   -0.9580 O.2     1  UNL1       -0.3166
      2  C1        -0.3660   -1.3890   -0.3570 C.2     1  UNL1        0.0711
      3  C2        -0.7000    0.0500   -0.2140 C.3     1  UNL1        0.0341
      4  C3        -2.0530    0.3670   -0.7660 C.ar    1  UNL1        0.0749
      5  N1        -2.2110    0.9490   -1.9650 N.ar    1  UNL1       -0.1749
      6  N2        -3.4100    1.2380   -2.4670 N.ar    1  UNL1       -0.2425
      7  C4        -4.5400    0.9610   -1.7960 C.ar    1  UNL1        0.2725
      8  O2        -5.6690    1.2310   -2.2650 O.2     1  UNL1       -0.2658
      9  C5        -4.4320    0.3630   -0.5610 C.ar    1  UNL1        0.0496
     10  C6        -5.5770    0.0810    0.1370 C.ar    1  UNL1       -0.0487
     11  C7        -5.5110   -0.5110    1.3780 C.ar    1  UNL1       -0.0610
     12  C8        -4.2620   -0.8050    1.8840 C.ar    1  UNL1       -0.0611
     13  C9        -3.0920   -0.5340    1.2080 C.ar    1  UNL1       -0.0521
     14  C10       -3.1900    0.0610   -0.0350 C.ar    1  UNL1        0.0106
     15  N3         0.8310   -1.8840    0.1520 N.am    1  UNL1       -0.5171
     16  O3         2.0560   -1.5140    0.2170 O.3     1  UNL1       -0.4550
     17  C11        2.4320   -0.2280   -0.0150 C.3     1  UNL1        0.0554
     18  C12        3.8870    0.0070    0.1250 C.ar    1  UNL1       -0.0233
     19  C13        4.7640   -1.0460    0.1660 C.ar    1  UNL1       -0.0564
     20  C14        6.1410   -0.8150    0.3040 C.ar    1  UNL1       -0.0614
     21  C15        6.6180    0.4750    0.3990 C.ar    1  UNL1       -0.0617
     22  C16        5.7360    1.5350    0.3580 C.ar    1  UNL1       -0.0614
     23  C17        4.3620    1.2930    0.2200 C.ar    1  UNL1       -0.0564
     24 H           0.0316    0.6285   -0.7384 H       1  UNL1        0.0391
     25 H          -0.7043    0.2869    0.8294 H       1  UNL1        0.0391
     26 H          -3.4696    1.6653   -3.3519 H       1  UNL1        0.1921
     27 H          -6.4959    0.3142   -0.2708 H       1  UNL1        0.0625
     28 H          -6.3672   -0.7276    1.9118 H       1  UNL1        0.0618
     29 H          -4.2007   -1.2493    2.8135 H       1  UNL1        0.0618
     30 H          -2.1736   -0.7677    1.6166 H       1  UNL1        0.0624
     31 H           1.9204    0.4032    0.6812 H       1  UNL1        0.0595
     32 H           2.1788   -0.0093   -1.0314 H       1  UNL1        0.0595
     33 H           4.4098   -2.0127    0.0951 H       1  UNL1        0.0621
     34 H           6.7970   -1.6111    0.3344 H       1  UNL1        0.0618
     35 H           7.6305    0.6470    0.5003 H       1  UNL1        0.0618
     36 H           6.0865    2.5031    0.4287 H       1  UNL1        0.0618
     37 H           3.7026    2.0863    0.1895 H       1  UNL1        0.0621
@<TRIPOS>UNITY_ATOM_ATTR
15 1
charge -1
@<TRIPOS>BOND
     1     1     2    2
     2     2     3    1
     3     2    15    1
     4     3     4    1
     5     4     5   ar
     6     4    14   ar
     7     5     6   ar
     8     6     7   ar
     9     7     8    2
    10     7     9   ar
    11     9    10   ar
    12     9    14   ar
    13    10    11   ar
    14    11    12   ar
    15    12    13   ar
    16    13    14   ar
    17    15    16    1
    18    16    17    1
    19    17    18    1
    20    18    19   ar
    21    18    23   ar
    22    19    20   ar
    23    20    21   ar
    24    21    22   ar
    25    22    23   ar
    26     3    24    1
    27     3    25    1
    28     6    26    1
    29    10    27    1
    30    11    28    1
    31    12    29    1
    32    13    30    1
    33    17    31    1
    34    17    32    1
    35    19    33    1
    36    20    34    1
    37    21    35    1
    38    22    36    1
    39    23    37    1
@<TRIPOS>MOLECULE
../data/bude_mols_rdkit_confs_charged/molecule_35.pdb
 37 39 0 0 0
SMALL
GASTEIGER

@<TRIPOS>ATOM
      1  O1         0.0620   -2.1750    0.1620 O.2     1  UNL1       -0.3166
      2  C1        -0.0600   -0.9290    0.0430 C.2     1  UNL1        0.0711
      3  C2        -1.2850   -0.3410    0.7080 C.3     1  UNL1        0.0341
      4  C3        -2.4190   -0.4080   -0.2610 C.ar    1  UNL1        0.0749
      5  N1        -2.1980   -0.8960   -1.5080 N.ar    1  UNL1       -0.1749
      6  N2        -3.1640   -0.8870   -2.3820 N.ar    1  UNL1       -0.2425
      7  C4        -4.4030   -0.4080   -2.1110 C.ar    1  UNL1        0.2725
      8  O2        -5.2970   -0.4220   -2.9890 O.2     1  UNL1       -0.2658
      9  C5        -4.6560    0.0940   -0.8530 C.ar    1  UNL1        0.0496
     10  C6        -5.9250    0.5980   -0.5840 C.ar    1  UNL1       -0.0487
     11  C7        -6.1560    1.1130    0.6710 C.ar    1  UNL1       -0.0610
     12  C8        -5.1510    1.1180    1.6190 C.ar    1  UNL1       -0.0611
     13  C9        -3.9080    0.6170    1.3400 C.ar    1  UNL1       -0.0521
     14  C10       -3.6300    0.0870    0.0800 C.ar    1  UNL1        0.0106
     15  N3         0.8460   -0.1670   -0.6450 N.am    1  UNL1       -0.5171
     16  O3         2.0850    0.0940   -0.7400 O.3     1  UNL1       -0.4550
     17  C11        2.9140   -0.5670    0.1140 C.3     1  UNL1        0.0554
     18  C12        4.3400   -0.1460   -0.0840 C.ar    1  UNL1       -0.0233
     19  C13        5.2680   -0.6420    0.7930 C.ar    1  UNL1       -0.0564
     20  C14        6.6070   -0.3310    0.7180 C.ar    1  UNL1       -0.0614
     21  C15        6.9900    0.5270   -0.3060 C.ar    1  UNL1       -0.0617
     22  C16        6.0490    1.0360   -1.2030 C.ar    1  UNL1       -0.0614
     23  C17        4.7210    0.6980   -1.0910 C.ar    1  UNL1       -0.0564
     24 H          -1.0976    0.6777    0.9765 H       1  UNL1        0.0391
     25 H          -1.5236   -0.8900    1.5949 H       1  UNL1        0.0391
     26 H          -2.9859   -1.2449   -3.2817 H       1  UNL1        0.1921
     27 H          -6.6672    0.5859   -1.3010 H       1  UNL1        0.0625
     28 H          -7.0846    1.4974    0.9052 H       1  UNL1        0.0618
     29 H          -5.3411    1.5070    2.5558 H       1  UNL1        0.0618
     30 H          -3.1736    0.6315    2.0648 H       1  UNL1        0.0624
     31 H           2.8323   -1.6190   -0.0637 H       1  UNL1        0.0595
     32 H           2.6263   -0.3318    1.1174 H       1  UNL1        0.0595
     33 H           4.9497   -1.2762    1.5423 H       1  UNL1        0.0621
     34 H           7.2914   -0.7154    1.3880 H       1  UNL1        0.0618
     35 H           7.9827    0.7913   -0.4046 H       1  UNL1        0.0618
     36 H           6.3530    1.6717   -1.9570 H       1  UNL1        0.0618
     37 H           4.0250    1.0738   -1.7539 H       1  UNL1        0.0621
@<TRIPOS>UNITY_ATOM_ATTR
15 1
charge -1
@<TRIPOS>BOND
     1     1     2    2
     2     2     3    1
     3     2    15    1
     4     3     4    1
     5     4     5   ar
     6     4    14   ar
     7     5     6   ar
     8     6     7   ar
     9     7     8    2
    10     7     9   ar
    11     9    10   ar
    12     9    14   ar
    13    10    11   ar
    14    11    12   ar
    15    12    13   ar
    16    13    14   ar
    17    15    16    1
    18    16    17    1
    19    17    18    1
    20    18    19   ar
    21    18    23   ar
    22    19    20   ar
    23    20    21   ar
    24    21    22   ar
    25    22    23   ar
    26     3    24    1
    27     3    25    1
    28     6    26    1
    29    10    27    1
    30    11    28    1
    31    12    29    1
    32    13    30    1
    33    17    31    1
    34    17    32    1
    35    19    33    1
    36    20    34    1
    37    21    35    1
    38    22    36    1
    39    23    37    1
@<TRIPOS>MOLECULE
../data/bude_mols_rdkit_confs_charged/molecule_35.pdb
 37 39 0 0 0
SMALL
GASTEIGER

@<TRIPOS>ATOM
      1  O1        -0.2440    0.5490    0.9710 O.2     1  UNL1       -0.3166
      2  C1         0.0390   -0.1660   -0.0090 C.2     1  UNL1        0.0711
      3  C2        -0.8930   -0.3060   -1.1230 C.3     1  UNL1        0.0341
      4  C3        -2.1420    0.4670   -0.9480 C.ar    1  UNL1        0.0749
      5  N1        -2.3690    1.6140   -1.6080 N.ar    1  UNL1       -0.1749
      6  N2        -3.4840    2.3130   -1.4590 N.ar    1  UNL1       -0.2425
      7  C4        -4.4380    1.8830   -0.6260 C.ar    1  UNL1        0.2725
      8  O2        -5.4940    2.5800   -0.5080 O.2     1  UNL1       -0.2658
      9  C5        -4.3080    0.7130    0.1050 C.ar    1  UNL1        0.0496
     10  C6        -5.2860    0.2600    0.9670 C.ar    1  UNL1       -0.0487
     11  C7        -5.0790   -0.9150    1.6580 C.ar    1  UNL1       -0.0610
     12  C8        -3.9220   -1.6490    1.5090 C.ar    1  UNL1       -0.0611
     13  C9        -2.9660   -1.1680    0.6400 C.ar    1  UNL1       -0.0521
     14  C10       -3.1210    0.0080   -0.0810 C.ar    1  UNL1        0.0106
     15  N3         1.2770   -0.8540   -0.0460 N.am    1  UNL1       -0.5171
     16  O3         1.8400   -1.0770   -1.2540 O.3     1  UNL1       -0.4550
     17  C11        2.7900   -0.1000   -1.4950 C.3     1  UNL1        0.0554
     18  C12        3.8240   -0.1740   -0.4370 C.ar    1  UNL1       -0.0233
     19  C13        4.7450    0.8710   -0.3220 C.ar    1  UNL1       -0.0564
     20  C14        5.7310    0.8700    0.6290 C.ar    1  UNL1       -0.0614
     21  C15        5.8460   -0.1920    1.5220 C.ar    1  UNL1       -0.0617
     22  C16        4.9490   -1.2190    1.4160 C.ar    1  UNL1       -0.0614
     23  C17        3.9680   -1.2010    0.4580 C.ar    1  UNL1       -0.0564
     24 H          -1.1464   -1.3406   -1.2246 H       1  UNL1        0.0391
     25 H          -0.4037    0.0793   -1.9931 H       1  UNL1        0.0391
     26 H          -3.6107    3.1499   -1.9618 H       1  UNL1        0.1921
     27 H          -6.1604    0.7935    1.0927 H       1  UNL1        0.0625
     28 H          -5.8094   -1.2537    2.3036 H       1  UNL1        0.0618
     29 H          -3.7764   -2.5280    2.0298 H       1  UNL1        0.0618
     30 H          -2.0944   -1.7074    0.5199 H       1  UNL1        0.0624
     31 H           2.3269    0.8645   -1.4795 H       1  UNL1        0.0595
     32 H           3.2376   -0.2546   -2.4545 H       1  UNL1        0.0595
     33 H           4.6802    1.6684   -0.9740 H       1  UNL1        0.0621
     34 H           6.3920    1.6606    0.6838 H       1  UNL1        0.0618
     35 H           6.5854   -0.2039    2.2418 H       1  UNL1        0.0618
     36 H           5.0113   -2.0183    2.0658 H       1  UNL1        0.0618
     37 H           3.3103   -1.9948    0.4092 H       1  UNL1        0.0621
@<TRIPOS>UNITY_ATOM_ATTR
15 1
charge -1
@<TRIPOS>BOND
     1     1     2    2
     2     2     3    1
     3     2    15    1
     4     3     4    1
     5     4     5   ar
     6     4    14   ar
     7     5     6   ar
     8     6     7   ar
     9     7     8    2
    10     7     9   ar
    11     9    10   ar
    12     9    14   ar
    13    10    11   ar
    14    11    12   ar
    15    12    13   ar
    16    13    14   ar
    17    15    16    1
    18    16    17    1
    19    17    18    1
    20    18    19   ar
    21    18    23   ar
    22    19    20   ar
    23    20    21   ar
    24    21    22   ar
    25    22    23   ar
    26     3    24    1
    27     3    25    1
    28     6    26    1
    29    10    27    1
    30    11    28    1
    31    12    29    1
    32    13    30    1
    33    17    31    1
    34    17    32    1
    35    19    33    1
    36    20    34    1
    37    21    35    1
    38    22    36    1
    39    23    37    1
@<TRIPOS>MOLECULE
../data/bude_mols_rdkit_confs_charged/molecule_35.pdb
 37 39 0 0 0
SMALL
GASTEIGER

@<TRIPOS>ATOM
      1  O1        -0.5840    0.9060    0.7230 O.2     1  UNL1       -0.3166
      2  C1        -0.2360    0.8780   -0.4860 C.2     1  UNL1        0.0711
      3  C2        -1.0260    0.0610   -1.4290 C.3     1  UNL1        0.0341
      4  C3        -2.1530   -0.6090   -0.7340 C.ar    1  UNL1        0.0749
      5  N1        -2.1220   -1.9160   -0.4340 N.ar    1  UNL1       -0.1749
      6  N2        -3.1130   -2.5220    0.1790 N.ar    1  UNL1       -0.2425
      7  C4        -4.2240   -1.8710    0.5440 C.ar    1  UNL1        0.2725
      8  O2        -5.1690   -2.4670    1.1320 O.2     1  UNL1       -0.2658
      9  C5        -4.3010   -0.5280    0.2570 C.ar    1  UNL1        0.0496
     10  C6        -5.4300    0.1840    0.6170 C.ar    1  UNL1       -0.0487
     11  C7        -5.4840    1.5160    0.3210 C.ar    1  UNL1       -0.0610
     12  C8        -4.4670    2.1850   -0.3190 C.ar    1  UNL1       -0.0611
     13  C9        -3.3450    1.4770   -0.6760 C.ar    1  UNL1       -0.0521
     14  C10       -3.2710    0.1270   -0.3860 C.ar    1  UNL1        0.0106
     15  N3         0.8930    1.6350   -0.8510 N.am    1  UNL1       -0.5171
     16  O3         2.1490    1.4620   -0.4550 O.3     1  UNL1       -0.4550
     17  C11        2.4970    0.1150   -0.3790 C.3     1  UNL1        0.0554
     18  C12        3.9050   -0.0610    0.0630 C.ar    1  UNL1       -0.0233
     19  C13        4.7010    1.0230    0.3370 C.ar    1  UNL1       -0.0564
     20  C14        6.0210    0.8220    0.7500 C.ar    1  UNL1       -0.0614
     21  C15        6.5340   -0.4570    0.8860 C.ar    1  UNL1       -0.0617
     22  C16        5.7340   -1.5450    0.6110 C.ar    1  UNL1       -0.0614
     23  C17        4.4260   -1.3290    0.2020 C.ar    1  UNL1       -0.0564
     24 H          -0.3917   -0.6823   -1.8649 H       1  UNL1        0.0391
     25 H          -1.4248    0.7030   -2.1864 H       1  UNL1        0.0391
     26 H          -3.0363   -3.4836    0.3758 H       1  UNL1        0.1921
     27 H          -6.2151   -0.2811    1.0990 H       1  UNL1        0.0625
     28 H          -6.3278    2.0456    0.5903 H       1  UNL1        0.0618
     29 H          -4.5447    3.1931   -0.5258 H       1  UNL1        0.0618
     30 H          -2.5634    1.9491   -1.1569 H       1  UNL1        0.0624
     31 H           2.3779   -0.3297   -1.3449 H       1  UNL1        0.0595
     32 H           1.8589   -0.3560    0.3392 H       1  UNL1        0.0595
     33 H           4.3274    1.9800    0.2387 H       1  UNL1        0.0621
     34 H           6.6204    1.6364    0.9560 H       1  UNL1        0.0618
     35 H           7.5100   -0.5947    1.1916 H       1  UNL1        0.0618
     36 H           6.1018   -2.5044    0.7077 H       1  UNL1        0.0618
     37 H           3.8253   -2.1424   -0.0043 H       1  UNL1        0.0621
@<TRIPOS>UNITY_ATOM_ATTR
15 1
charge -1
@<TRIPOS>BOND
     1     1     2    2
     2     2     3    1
     3     2    15    1
     4     3     4    1
     5     4     5   ar
     6     4    14   ar
     7     5     6   ar
     8     6     7   ar
     9     7     8    2
    10     7     9   ar
    11     9    10   ar
    12     9    14   ar
    13    10    11   ar
    14    11    12   ar
    15    12    13   ar
    16    13    14   ar
    17    15    16    1
    18    16    17    1
    19    17    18    1
    20    18    19   ar
    21    18    23   ar
    22    19    20   ar
    23    20    21   ar
    24    21    22   ar
    25    22    23   ar
    26     3    24    1
    27     3    25    1
    28     6    26    1
    29    10    27    1
    30    11    28    1
    31    12    29    1
    32    13    30    1
    33    17    31    1
    34    17    32    1
    35    19    33    1
    36    20    34    1
    37    21    35    1
    38    22    36    1
    39    23    37    1
@<TRIPOS>MOLECULE
../data/bude_mols_rdkit_confs_charged/molecule_35.pdb
 37 39 0 0 0
SMALL
GASTEIGER

@<TRIPOS>ATOM
      1  O1         0.1550    1.2010   -1.5670 O.2     1  UNL1       -0.3166
      2  C1        -0.3650    0.1090   -1.1330 C.2     1  UNL1        0.0711
      3  C2        -1.7050   -0.2370   -1.6330 C.3     1  UNL1        0.0341
      4  C3        -2.7480    0.5580   -0.8900 C.ar    1  UNL1        0.0749
      5  N1        -3.1530    1.7580   -1.3280 N.ar    1  UNL1       -0.1749
      6  N2        -4.0030    2.4970   -0.6470 N.ar    1  UNL1       -0.2425
      7  C4        -4.5100    2.0810    0.5320 C.ar    1  UNL1        0.2725
      8  O2        -5.3280    2.7690    1.2090 O.2     1  UNL1       -0.2658
      9  C5        -4.1560    0.8560    1.0690 C.ar    1  UNL1        0.0496
     10  C6        -4.6790    0.3880    2.2780 C.ar    1  UNL1       -0.0487
     11  C7        -4.2810   -0.8550    2.7140 C.ar    1  UNL1       -0.0610
     12  C8        -3.3890   -1.6140    1.9750 C.ar    1  UNL1       -0.0611
     13  C9        -2.8660   -1.1530    0.7800 C.ar    1  UNL1       -0.0521
     14  C10       -3.2600    0.0920    0.3350 C.ar    1  UNL1        0.0106
     15  N3         0.3040   -0.7360   -0.2100 N.am    1  UNL1       -0.5171
     16  O3         1.6210   -0.9120   -0.3640 O.3     1  UNL1       -0.4550
     17  C11        2.3500    0.0750    0.3110 C.3     1  UNL1        0.0554
     18  C12        3.8050   -0.1600    0.1430 C.ar    1  UNL1       -0.0233
     19  C13        4.2000   -1.0130   -0.9170 C.ar    1  UNL1       -0.0564
     20  C14        5.5170   -1.2870   -1.1120 C.ar    1  UNL1       -0.0614
     21  C15        6.5350   -0.7700   -0.3170 C.ar    1  UNL1       -0.0617
     22  C16        6.1540    0.0710    0.7270 C.ar    1  UNL1       -0.0614
     23  C17        4.7930    0.3410    0.9100 C.ar    1  UNL1       -0.0564
     24 H          -1.8812   -1.2817   -1.4833 H       1  UNL1        0.0391
     25 H          -1.7629   -0.0076   -2.6765 H       1  UNL1        0.0391
     26 H          -4.2748    3.3726   -1.0059 H       1  UNL1        0.1921
     27 H          -5.3428    0.9569    2.8264 H       1  UNL1        0.0625
     28 H          -4.6518   -1.2262    3.6027 H       1  UNL1        0.0618
     29 H          -3.1082   -2.5440    2.3234 H       1  UNL1        0.0618
     30 H          -2.2000   -1.7243    0.2368 H       1  UNL1        0.0624
     31 H           2.1049    0.0459    1.3521 H       1  UNL1        0.0595
     32 H           2.1012    1.0330   -0.0955 H       1  UNL1        0.0595
     33 H           3.4886   -1.4258   -1.5403 H       1  UNL1        0.0621
     34 H           5.7756   -1.9120   -1.8915 H       1  UNL1        0.0618
     35 H           7.5260   -0.9986   -0.4922 H       1  UNL1        0.0618
     36 H           6.8616    0.4865    1.3529 H       1  UNL1        0.0618
     37 H           4.5278    0.9672    1.6862 H       1  UNL1        0.0621
@<TRIPOS>UNITY_ATOM_ATTR
15 1
charge -1
@<TRIPOS>BOND
     1     1     2    2
     2     2     3    1
     3     2    15    1
     4     3     4    1
     5     4     5   ar
     6     4    14   ar
     7     5     6   ar
     8     6     7   ar
     9     7     8    2
    10     7     9   ar
    11     9    10   ar
    12     9    14   ar
    13    10    11   ar
    14    11    12   ar
    15    12    13   ar
    16    13    14   ar
    17    15    16    1
    18    16    17    1
    19    17    18    1
    20    18    19   ar
    21    18    23   ar
    22    19    20   ar
    23    20    21   ar
    24    21    22   ar
    25    22    23   ar
    26     3    24    1
    27     3    25    1
    28     6    26    1
    29    10    27    1
    30    11    28    1
    31    12    29    1
    32    13    30    1
    33    17    31    1
    34    17    32    1
    35    19    33    1
    36    20    34    1
    37    21    35    1
    38    22    36    1
    39    23    37    1
@<TRIPOS>MOLECULE
../data/bude_mols_rdkit_confs_charged/molecule_35.pdb
 37 39 0 0 0
SMALL
GASTEIGER

@<TRIPOS>ATOM
      1  O1        -0.7680    0.5610    1.5290 O.2     1  UNL1       -0.3166
      2  C1        -0.1530    0.4910    0.4330 C.2     1  UNL1        0.0711
      3  C2        -0.8380    0.7700   -0.8820 C.3     1  UNL1        0.0341
      4  C3        -2.2110    1.0990   -0.6010 C.ar    1  UNL1        0.0749
      5  N1        -2.6300    2.3730   -0.6550 N.ar    1  UNL1       -0.1749
      6  N2        -3.8950    2.6770   -0.3950 N.ar    1  UNL1       -0.2425
      7  C4        -4.8250    1.7650   -0.0700 C.ar    1  UNL1        0.2725
      8  O2        -6.0180    2.0840    0.1710 O.2     1  UNL1       -0.2658
      9  C5        -4.4630    0.4530    0.0010 C.ar    1  UNL1        0.0496
     10  C6        -5.3440   -0.5630    0.3280 C.ar    1  UNL1       -0.0487
     11  C7        -4.9090   -1.8670    0.3810 C.ar    1  UNL1       -0.0610
     12  C8        -3.5970   -2.1880    0.1130 C.ar    1  UNL1       -0.0611
     13  C9        -2.7080   -1.1840   -0.2140 C.ar    1  UNL1       -0.0521
     14  C10       -3.1370    0.1260   -0.2690 C.ar    1  UNL1        0.0106
     15  N3         1.2240    0.1350    0.5010 N.am    1  UNL1       -0.5171
     16  O3         1.6870   -0.8630    1.2700 O.3     1  UNL1       -0.4550
     17  C11        2.6770   -1.5270    0.5980 C.3     1  UNL1        0.0554
     18  C12        3.8470   -0.7010    0.2320 C.ar    1  UNL1       -0.0233
     19  C13        3.9980    0.5820    0.6970 C.ar    1  UNL1       -0.0564
     20  C14        5.1020    1.3660    0.3500 C.ar    1  UNL1       -0.0614
     21  C15        6.0790    0.8620   -0.4790 C.ar    1  UNL1       -0.0617
     22  C16        5.9280   -0.4280   -0.9470 C.ar    1  UNL1       -0.0614
     23  C17        4.8340   -1.1990   -0.6010 C.ar    1  UNL1       -0.0564
     24 H          -0.7920   -0.0968   -1.5077 H       1  UNL1        0.0391
     25 H          -0.3561    1.5787   -1.3906 H       1  UNL1        0.0391
     26 H          -4.1663    3.6222   -0.4430 H       1  UNL1        0.1921
     27 H          -6.3309   -0.3416    0.5328 H       1  UNL1        0.0625
     28 H          -5.5758   -2.6158    0.6252 H       1  UNL1        0.0618
     29 H          -3.2815   -3.1696    0.1562 H       1  UNL1        0.0618
     30 H          -1.7225   -1.4133   -0.4173 H       1  UNL1        0.0624
     31 H           2.2575   -1.9254   -0.3021 H       1  UNL1        0.0595
     32 H           3.0398   -2.2790    1.2672 H       1  UNL1        0.0595
     33 H           3.2767    0.9783    1.3197 H       1  UNL1        0.0621
     34 H           5.1852    2.3270    0.7169 H       1  UNL1        0.0618
     35 H           6.8988    1.4309   -0.7424 H       1  UNL1        0.0618
     36 H           6.6485   -0.8259   -1.5695 H       1  UNL1        0.0618
     37 H           4.7520   -2.1597   -0.9690 H       1  UNL1        0.0621
@<TRIPOS>UNITY_ATOM_ATTR
15 1
charge -1
@<TRIPOS>BOND
     1     1     2    2
     2     2     3    1
     3     2    15    1
     4     3     4    1
     5     4     5   ar
     6     4    14   ar
     7     5     6   ar
     8     6     7   ar
     9     7     8    2
    10     7     9   ar
    11     9    10   ar
    12     9    14   ar
    13    10    11   ar
    14    11    12   ar
    15    12    13   ar
    16    13    14   ar
    17    15    16    1
    18    16    17    1
    19    17    18    1
    20    18    19   ar
    21    18    23   ar
    22    19    20   ar
    23    20    21   ar
    24    21    22   ar
    25    22    23   ar
    26     3    24    1
    27     3    25    1
    28     6    26    1
    29    10    27    1
    30    11    28    1
    31    12    29    1
    32    13    30    1
    33    17    31    1
    34    17    32    1
    35    19    33    1
    36    20    34    1
    37    21    35    1
    38    22    36    1
    39    23    37    1
@<TRIPOS>MOLECULE
../data/bude_mols_rdkit_confs_charged/molecule_35.pdb
 37 39 0 0 0
SMALL
GASTEIGER

@<TRIPOS>ATOM
      1  O1        -0.4490    2.2650    0.9510 O.2     1  UNL1       -0.3166
      2  C1        -0.2380    1.6000   -0.0680 C.2     1  UNL1        0.0711
      3  C2         1.1320    1.4790   -0.6270 C.3     1  UNL1        0.0341
      4  C3         1.8850    0.4770    0.2030 C.ar    1  UNL1        0.0749
      5  N1         1.2350   -0.1720    1.1790 N.ar    1  UNL1       -0.1749
      6  N2         1.7730   -1.0870    1.9310 N.ar    1  UNL1       -0.2425
      7  C4         3.0500   -1.4100    1.7320 C.ar    1  UNL1        0.2725
      8  O2         3.5850   -2.2930    2.4500 O.2     1  UNL1       -0.2658
      9  C5         3.7890   -0.7780    0.7360 C.ar    1  UNL1        0.0496
     10  C6         5.0940   -1.1000    0.5280 C.ar    1  UNL1       -0.0487
     11  C7         5.8420   -0.4700   -0.4590 C.ar    1  UNL1       -0.0610
     12  C8         5.2320    0.4910   -1.2270 C.ar    1  UNL1       -0.0611
     13  C9         3.9080    0.8480   -1.0490 C.ar    1  UNL1       -0.0521
     14  C10        3.1870    0.1950   -0.0490 C.ar    1  UNL1        0.0106
     15  N3        -1.3490    0.9240   -0.7180 N.am    1  UNL1       -0.5171
     16  O3        -1.3860   -0.4400   -0.5250 O.3     1  UNL1       -0.4550
     17  C11       -2.1760   -0.7810    0.5620 C.3     1  UNL1        0.0554
     18  C12       -3.5730   -0.3840    0.3670 C.ar    1  UNL1       -0.0233
     19  C13       -3.9260    0.9330    0.3370 C.ar    1  UNL1       -0.0564
     20  C14       -5.2470    1.3080    0.1420 C.ar    1  UNL1       -0.0614
     21  C15       -6.1820    0.3170   -0.0180 C.ar    1  UNL1       -0.0617
     22  C16       -5.8160   -1.0290    0.0140 C.ar    1  UNL1       -0.0614
     23  C17       -4.5070   -1.4030    0.2060 C.ar    1  UNL1       -0.0564
     24 H           1.6255    2.4276   -0.5874 H       1  UNL1        0.0391
     25 H           1.0904    1.1604   -1.6476 H       1  UNL1        0.0391
     26 H           1.2465   -1.5323    2.6337 H       1  UNL1        0.1921
     27 H           5.5365   -1.8253    1.1138 H       1  UNL1        0.0625
     28 H           6.8320   -0.7183   -0.6112 H       1  UNL1        0.0618
     29 H           5.7807    0.9632   -1.9625 H       1  UNL1        0.0618
     30 H           3.4678    1.5734   -1.6364 H       1  UNL1        0.0624
     31 H          -1.7954   -0.2910    1.4337 H       1  UNL1        0.0595
     32 H          -2.1457   -1.8447    0.6738 H       1  UNL1        0.0595
     33 H          -3.2024    1.6584    0.4607 H       1  UNL1        0.0621
     34 H          -5.5186    2.3033    0.1180 H       1  UNL1        0.0618
     35 H          -7.1715    0.5710   -0.1643 H       1  UNL1        0.0618
     36 H          -6.5391   -1.7551   -0.1083 H       1  UNL1        0.0618
     37 H          -4.2290   -2.3966    0.2297 H       1  UNL1        0.0621
@<TRIPOS>UNITY_ATOM_ATTR
15 1
charge -1
@<TRIPOS>BOND
     1     1     2    2
     2     2     3    1
     3     2    15    1
     4     3     4    1
     5     4     5   ar
     6     4    14   ar
     7     5     6   ar
     8     6     7   ar
     9     7     8    2
    10     7     9   ar
    11     9    10   ar
    12     9    14   ar
    13    10    11   ar
    14    11    12   ar
    15    12    13   ar
    16    13    14   ar
    17    15    16    1
    18    16    17    1
    19    17    18    1
    20    18    19   ar
    21    18    23   ar
    22    19    20   ar
    23    20    21   ar
    24    21    22   ar
    25    22    23   ar
    26     3    24    1
    27     3    25    1
    28     6    26    1
    29    10    27    1
    30    11    28    1
    31    12    29    1
    32    13    30    1
    33    17    31    1
    34    17    32    1
    35    19    33    1
    36    20    34    1
    37    21    35    1
    38    22    36    1
    39    23    37    1
@<TRIPOS>MOLECULE
../data/bude_mols_rdkit_confs_charged/molecule_35.pdb
 37 39 0 0 0
SMALL
GASTEIGER

@<TRIPOS>ATOM
      1  O1        -0.1350   -2.4220    0.5440 O.2     1  UNL1       -0.3166
      2  C1         0.1750   -1.2900    0.1240 C.2     1  UNL1        0.0711
      3  C2        -0.8830   -0.2970   -0.1480 C.3     1  UNL1        0.0341
      4  C3        -2.2240   -0.8110    0.1290 C.ar    1  UNL1        0.0749
      5  N1        -2.4740   -2.0570    0.5840 N.ar    1  UNL1       -0.1749
      6  N2        -3.6750   -2.5180    0.8330 N.ar    1  UNL1       -0.2425
      7  C4        -4.7770   -1.7680    0.6490 C.ar    1  UNL1        0.2725
      8  O2        -5.9400   -2.1990    0.8840 O.2     1  UNL1       -0.2658
      9  C5        -4.5870   -0.4790    0.1830 C.ar    1  UNL1        0.0496
     10  C6        -5.7090    0.3130   -0.0140 C.ar    1  UNL1       -0.0487
     11  C7        -5.6040    1.6010   -0.4730 C.ar    1  UNL1       -0.0610
     12  C8        -4.3330    2.0860   -0.7350 C.ar    1  UNL1       -0.0611
     13  C9        -3.2170    1.2940   -0.5380 C.ar    1  UNL1       -0.0521
     14  C10       -3.3080    0.0130   -0.0820 C.ar    1  UNL1        0.0106
     15  N3         1.5360   -0.9750   -0.0850 N.am    1  UNL1       -0.5171
     16  O3         1.8670   -0.0500   -0.9750 O.3     1  UNL1       -0.4550
     17  C11        3.1730   -0.0060   -1.3410 C.3     1  UNL1        0.0554
     18  C12        4.1450    0.2500   -0.2800 C.ar    1  UNL1       -0.0233
     19  C13        5.4830    0.2650   -0.6200 C.ar    1  UNL1       -0.0564
     20  C14        6.4790    0.4970    0.3040 C.ar    1  UNL1       -0.0614
     21  C15        6.1400    0.7260    1.6230 C.ar    1  UNL1       -0.0617
     22  C16        4.7940    0.7170    1.9950 C.ar    1  UNL1       -0.0614
     23  C17        3.8220    0.4800    1.0420 C.ar    1  UNL1       -0.0564
     24 H          -0.8307   -0.0147   -1.1788 H       1  UNL1        0.0391
     25 H          -0.7167    0.5382    0.4998 H       1  UNL1        0.0391
     26 H          -3.7740   -3.4398    1.1643 H       1  UNL1        0.1921
     27 H          -6.6431   -0.0757    0.1894 H       1  UNL1        0.0625
     28 H          -6.4408    2.1873   -0.6179 H       1  UNL1        0.0618
     29 H          -4.2177    3.0511   -1.0818 H       1  UNL1        0.0618
     30 H          -2.2845    1.6857   -0.7430 H       1  UNL1        0.0624
     31 H           3.2789    0.7689   -2.0712 H       1  UNL1        0.0595
     32 H           3.3981   -0.9898   -1.6964 H       1  UNL1        0.0595
     33 H           5.7474    0.0961   -1.6032 H       1  UNL1        0.0621
     34 H           7.4691    0.4996    0.0128 H       1  UNL1        0.0618
     35 H           6.8740    0.9020    2.3267 H       1  UNL1        0.0618
     36 H           4.5265    0.8866    2.9772 H       1  UNL1        0.0618
     37 H           2.8298    0.4748    1.3258 H       1  UNL1        0.0621
@<TRIPOS>UNITY_ATOM_ATTR
15 1
charge -1
@<TRIPOS>BOND
     1     1     2    2
     2     2     3    1
     3     2    15    1
     4     3     4    1
     5     4     5   ar
     6     4    14   ar
     7     5     6   ar
     8     6     7   ar
     9     7     8    2
    10     7     9   ar
    11     9    10   ar
    12     9    14   ar
    13    10    11   ar
    14    11    12   ar
    15    12    13   ar
    16    13    14   ar
    17    15    16    1
    18    16    17    1
    19    17    18    1
    20    18    19   ar
    21    18    23   ar
    22    19    20   ar
    23    20    21   ar
    24    21    22   ar
    25    22    23   ar
    26     3    24    1
    27     3    25    1
    28     6    26    1
    29    10    27    1
    30    11    28    1
    31    12    29    1
    32    13    30    1
    33    17    31    1
    34    17    32    1
    35    19    33    1
    36    20    34    1
    37    21    35    1
    38    22    36    1
    39    23    37    1
@<TRIPOS>MOLECULE
../data/bude_mols_rdkit_confs_charged/molecule_35.pdb
 37 39 0 0 0
SMALL
GASTEIGER

@<TRIPOS>ATOM
      1  O1         0.1850    0.1330    2.2020 O.2     1  UNL1       -0.3166
      2  C1         0.3370   -0.5550    1.1580 C.2     1  UNL1        0.0711
      3  C2        -0.8030   -0.7390    0.2480 C.3     1  UNL1        0.0341
      4  C3        -1.9960   -0.0350    0.7610 C.ar    1  UNL1        0.0749
      5  N1        -2.0280    0.6640    1.8860 N.ar    1  UNL1       -0.1749
      6  N2        -3.0760    1.3000    2.3660 N.ar    1  UNL1       -0.2425
      7  C4        -4.2270    1.2480    1.6670 C.ar    1  UNL1        0.2725
      8  O2        -5.2660    1.8400    2.0780 O.2     1  UNL1       -0.2658
      9  C5        -4.3030    0.5530    0.4880 C.ar    1  UNL1        0.0496
     10  C6        -5.4550    0.4720   -0.2590 C.ar    1  UNL1       -0.0487
     11  C7        -5.4810   -0.2410   -1.4400 C.ar    1  UNL1       -0.0610
     12  C8        -4.3700   -0.9000   -1.9230 C.ar    1  UNL1       -0.0611
     13  C9        -3.2080   -0.8160   -1.1640 C.ar    1  UNL1       -0.0521
     14  C10       -3.1780   -0.1030    0.0180 C.ar    1  UNL1        0.0106
     15  N3         1.6250   -1.1310    0.9050 N.am    1  UNL1       -0.5171
     16  O3         1.9190   -1.5950   -0.3520 O.3     1  UNL1       -0.4550
     17  C11        2.4870   -0.5750   -1.0720 C.3     1  UNL1        0.0554
     18  C12        3.7510   -0.1430   -0.3720 C.ar    1  UNL1       -0.0233
     19  C13        4.3610    1.0530   -0.7150 C.ar    1  UNL1       -0.0564
     20  C14        5.5110    1.4270   -0.0720 C.ar    1  UNL1       -0.0614
     21  C15        6.0670    0.6280    0.9130 C.ar    1  UNL1       -0.0617
     22  C16        5.4890   -0.5690    1.2820 C.ar    1  UNL1       -0.0614
     23  C17        4.3220   -0.9050    0.5980 C.ar    1  UNL1       -0.0564
     24 H          -1.0202   -1.7833    0.1630 H       1  UNL1        0.0391
     25 H          -0.5489   -0.3349   -0.7096 H       1  UNL1        0.0391
     26 H          -3.0204    1.7999    3.2123 H       1  UNL1        0.1921
     27 H          -6.3095    0.9498    0.0675 H       1  UNL1        0.0625
     28 H          -6.3600   -0.2825   -1.9792 H       1  UNL1        0.0618
     29 H          -4.3997   -1.4312   -2.8073 H       1  UNL1        0.0618
     30 H          -2.3536   -1.2946   -1.4896 H       1  UNL1        0.0624
     31 H           1.8066    0.2488   -1.1298 H       1  UNL1        0.0595
     32 H           2.7118   -0.9068   -2.0641 H       1  UNL1        0.0595
     33 H           3.9532    1.6554   -1.4470 H       1  UNL1        0.0621
     34 H           5.9694    2.3163   -0.3250 H       1  UNL1        0.0618
     35 H           6.9336    0.9351    1.3817 H       1  UNL1        0.0618
     36 H           5.8929   -1.1740    2.0141 H       1  UNL1        0.0618
     37 H           3.8594   -1.7938    0.8451 H       1  UNL1        0.0621
@<TRIPOS>UNITY_ATOM_ATTR
15 1
charge -1
@<TRIPOS>BOND
     1     1     2    2
     2     2     3    1
     3     2    15    1
     4     3     4    1
     5     4     5   ar
     6     4    14   ar
     7     5     6   ar
     8     6     7   ar
     9     7     8    2
    10     7     9   ar
    11     9    10   ar
    12     9    14   ar
    13    10    11   ar
    14    11    12   ar
    15    12    13   ar
    16    13    14   ar
    17    15    16    1
    18    16    17    1
    19    17    18    1
    20    18    19   ar
    21    18    23   ar
    22    19    20   ar
    23    20    21   ar
    24    21    22   ar
    25    22    23   ar
    26     3    24    1
    27     3    25    1
    28     6    26    1
    29    10    27    1
    30    11    28    1
    31    12    29    1
    32    13    30    1
    33    17    31    1
    34    17    32    1
    35    19    33    1
    36    20    34    1
    37    21    35    1
    38    22    36    1
    39    23    37    1
@<TRIPOS>MOLECULE
../data/bude_mols_rdkit_confs_charged/molecule_35.pdb
 37 39 0 0 0
SMALL
GASTEIGER

@<TRIPOS>ATOM
      1  O1        -0.2750   -0.8120    0.8580 O.2     1  UNL1       -0.3166
      2  C1         0.1040   -0.2770   -0.2080 C.2     1  UNL1        0.0711
      3  C2        -0.7350   -0.1760   -1.4270 C.3     1  UNL1        0.0341
      4  C3        -2.0690   -0.7900   -1.2060 C.ar    1  UNL1        0.0749
      5  N1        -2.3680   -1.9970   -1.7160 N.ar    1  UNL1       -0.1749
      6  N2        -3.5390   -2.5900   -1.5500 N.ar    1  UNL1       -0.2425
      7  C4        -4.5050   -1.9830   -0.8400 C.ar    1  UNL1        0.2725
      8  O2        -5.6180   -2.5470   -0.6830 O.2     1  UNL1       -0.2658
      9  C5        -4.2880   -0.7380   -0.2770 C.ar    1  UNL1        0.0496
     10  C6        -5.2580   -0.0900    0.4550 C.ar    1  UNL1       -0.0487
     11  C7        -4.9980    1.1460    0.9960 C.ar    1  UNL1       -0.0610
     12  C8        -3.7540    1.7090    0.7850 C.ar    1  UNL1       -0.0611
     13  C9        -2.7680    1.0830    0.0570 C.ar    1  UNL1       -0.0521
     14  C10       -3.0390   -0.1500   -0.4780 C.ar    1  UNL1        0.0106
     15  N3         1.4150    0.2680   -0.2590 N.am    1  UNL1       -0.5171
     16  O3         1.5760    1.4610    0.3990 O.3     1  UNL1       -0.4550
     17  C11        2.3700    1.1790    1.5290 C.3     1  UNL1        0.0554
     18  C12        3.6490    0.6350    0.9990 C.ar    1  UNL1       -0.0233
     19  C13        4.6950    1.5050    0.7270 C.ar    1  UNL1       -0.0564
     20  C14        5.8950    1.0290    0.2330 C.ar    1  UNL1       -0.0614
     21  C15        6.0530   -0.3310    0.0090 C.ar    1  UNL1       -0.0617
     22  C16        4.9880   -1.1730    0.2930 C.ar    1  UNL1       -0.0614
     23  C17        3.7830   -0.7090    0.7860 C.ar    1  UNL1       -0.0564
     24 H          -0.2453   -0.6829   -2.2320 H       1  UNL1        0.0391
     25 H          -0.8704    0.8587   -1.6634 H       1  UNL1        0.0391
     26 H          -3.7026   -3.4761   -1.9467 H       1  UNL1        0.1921
     27 H          -6.1795   -0.5324    0.5971 H       1  UNL1        0.0625
     28 H          -5.7154    1.6424    1.5473 H       1  UNL1        0.0618
     29 H          -3.5560    2.6373    1.1900 H       1  UNL1        0.0618
     30 H          -1.8484    1.5301   -0.0826 H       1  UNL1        0.0624
     31 H           1.8873    0.4558    2.1526 H       1  UNL1        0.0595
     32 H           2.5304    2.0524    2.1259 H       1  UNL1        0.0595
     33 H           4.5761    2.5163    0.8950 H       1  UNL1        0.0621
     34 H           6.6689    1.6815    0.0320 H       1  UNL1        0.0618
     35 H           6.9406   -0.7067   -0.3597 H       1  UNL1        0.0618
     36 H           5.0997   -2.1859    0.1298 H       1  UNL1        0.0618
     37 H           3.0066   -1.3583    0.9876 H       1  UNL1        0.0621
@<TRIPOS>UNITY_ATOM_ATTR
15 1
charge -1
@<TRIPOS>BOND
     1     1     2    2
     2     2     3    1
     3     2    15    1
     4     3     4    1
     5     4     5   ar
     6     4    14   ar
     7     5     6   ar
     8     6     7   ar
     9     7     8    2
    10     7     9   ar
    11     9    10   ar
    12     9    14   ar
    13    10    11   ar
    14    11    12   ar
    15    12    13   ar
    16    13    14   ar
    17    15    16    1
    18    16    17    1
    19    17    18    1
    20    18    19   ar
    21    18    23   ar
    22    19    20   ar
    23    20    21   ar
    24    21    22   ar
    25    22    23   ar
    26     3    24    1
    27     3    25    1
    28     6    26    1
    29    10    27    1
    30    11    28    1
    31    12    29    1
    32    13    30    1
    33    17    31    1
    34    17    32    1
    35    19    33    1
    36    20    34    1
    37    21    35    1
    38    22    36    1
    39    23    37    1
@<TRIPOS>MOLECULE
../data/bude_mols_rdkit_confs_charged/molecule_35.pdb
 37 39 0 0 0
SMALL
GASTEIGER

@<TRIPOS>ATOM
      1  O1        -0.1040    1.2530    0.2450 O.2     1  UNL1       -0.3166
      2  C1         0.0830    0.1120   -0.2470 C.2     1  UNL1        0.0711
      3  C2        -0.8350   -1.0320   -0.0930 C.3     1  UNL1        0.0341
      4  C3        -2.0360   -0.7290    0.7060 C.ar    1  UNL1        0.0749
      5  N1        -2.2270   -1.1270    1.9750 N.ar    1  UNL1       -0.1749
      6  N2        -3.3080   -0.8540    2.6800 N.ar    1  UNL1       -0.2425
      7  C4        -4.3050   -0.1410    2.1460 C.ar    1  UNL1        0.2725
      8  O2        -5.3560    0.1410    2.7870 O.2     1  UNL1       -0.2658
      9  C5        -4.2140    0.3160    0.8520 C.ar    1  UNL1        0.0496
     10  C6        -5.2400    1.0530    0.2970 C.ar    1  UNL1       -0.0487
     11  C7        -5.0810    1.4800   -1.0040 C.ar    1  UNL1       -0.0610
     12  C8        -3.9270    1.1790   -1.7310 C.ar    1  UNL1       -0.0611
     13  C9        -2.9270    0.4460   -1.1520 C.ar    1  UNL1       -0.0521
     14  C10       -3.0530    0.0060    0.1380 C.ar    1  UNL1        0.0106
     15  N3         1.2690   -0.1200   -1.0180 N.am    1  UNL1       -0.5171
     16  O3         1.7360   -1.3920   -1.2340 O.3     1  UNL1       -0.4550
     17  C11        2.6350   -1.6300   -0.1960 C.3     1  UNL1        0.0554
     18  C12        3.7380   -0.6370   -0.2490 C.ar    1  UNL1       -0.0233
     19  C13        4.3030   -0.2440    0.9380 C.ar    1  UNL1       -0.0564
     20  C14        5.3330    0.6710    0.9190 C.ar    1  UNL1       -0.0614
     21  C15        5.7890    1.1840   -0.3000 C.ar    1  UNL1       -0.0617
     22  C16        5.2310    0.7990   -1.5000 C.ar    1  UNL1       -0.0614
     23  C17        4.1990   -0.1200   -1.4480 C.ar    1  UNL1       -0.0564
     24 H          -0.3040   -1.8284    0.3852 H       1  UNL1        0.0391
     25 H          -1.1720   -1.2948   -1.0740 H       1  UNL1        0.0391
     26 H          -3.3812   -1.1779    3.6068 H       1  UNL1        0.1921
     27 H          -6.0924    1.2757    0.8344 H       1  UNL1        0.0625
     28 H          -5.8296    2.0331   -1.4497 H       1  UNL1        0.0618
     29 H          -3.8286    1.5091   -2.7038 H       1  UNL1        0.0618
     30 H          -2.0747    0.2241   -1.6899 H       1  UNL1        0.0624
     31 H           3.0393   -2.6157   -0.2951 H       1  UNL1        0.0595
     32 H           2.1250   -1.5422    0.7405 H       1  UNL1        0.0595
     33 H           3.9612   -0.6284    1.8327 H       1  UNL1        0.0621
     34 H           5.7677    0.9776    1.8033 H       1  UNL1        0.0618
     35 H           6.5622    1.8675   -0.3007 H       1  UNL1        0.0618
     36 H           5.5685    1.1798   -2.3978 H       1  UNL1        0.0618
     37 H           3.7594   -0.4297   -2.3288 H       1  UNL1        0.0621
@<TRIPOS>UNITY_ATOM_ATTR
15 1
charge -1
@<TRIPOS>BOND
     1     1     2    2
     2     2     3    1
     3     2    15    1
     4     3     4    1
     5     4     5   ar
     6     4    14   ar
     7     5     6   ar
     8     6     7   ar
     9     7     8    2
    10     7     9   ar
    11     9    10   ar
    12     9    14   ar
    13    10    11   ar
    14    11    12   ar
    15    12    13   ar
    16    13    14   ar
    17    15    16    1
    18    16    17    1
    19    17    18    1
    20    18    19   ar
    21    18    23   ar
    22    19    20   ar
    23    20    21   ar
    24    21    22   ar
    25    22    23   ar
    26     3    24    1
    27     3    25    1
    28     6    26    1
    29    10    27    1
    30    11    28    1
    31    12    29    1
    32    13    30    1
    33    17    31    1
    34    17    32    1
    35    19    33    1
    36    20    34    1
    37    21    35    1
    38    22    36    1
    39    23    37    1
@<TRIPOS>MOLECULE
../data/bude_mols_rdkit_confs_charged/molecule_35.pdb
 37 39 0 0 0
SMALL
GASTEIGER

@<TRIPOS>ATOM
      1  O1        -1.1980   -0.7410    1.9140 O.2     1  UNL1       -0.3166
      2  C1        -0.4170   -0.8590    0.9500 C.2     1  UNL1        0.0711
      3  C2        -0.6690   -0.1060   -0.2920 C.3     1  UNL1        0.0341
      4  C3        -1.8820    0.7010   -0.1370 C.ar    1  UNL1        0.0749
      5  N1        -1.7720    2.0320    0.0800 N.ar    1  UNL1       -0.1749
      6  N2        -2.8180    2.8210    0.2300 N.ar    1  UNL1       -0.2425
      7  C4        -4.0350    2.2610    0.1620 C.ar    1  UNL1        0.2725
      8  O2        -5.0460    2.9940    0.3020 O.2     1  UNL1       -0.2658
      9  C5        -4.2270    0.9120   -0.0560 C.ar    1  UNL1        0.0496
     10  C6        -5.4700    0.3340   -0.1290 C.ar    1  UNL1       -0.0487
     11  C7        -5.6730   -1.0120   -0.3480 C.ar    1  UNL1       -0.0610
     12  C8        -4.5380   -1.8050   -0.5010 C.ar    1  UNL1       -0.0611
     13  C9        -3.2710   -1.2720   -0.4360 C.ar    1  UNL1       -0.0521
     14  C10       -3.1170    0.0790   -0.2150 C.ar    1  UNL1        0.0106
     15  N3         0.7150   -1.7050    1.0200 N.am    1  UNL1       -0.5171
     16  O3         1.9300   -1.1180    0.9430 O.3     1  UNL1       -0.4550
     17  C11        2.5390   -1.2820   -0.2820 C.3     1  UNL1        0.0554
     18  C12        3.8650   -0.5820   -0.2200 C.ar    1  UNL1       -0.0233
     19  C13        3.8660    0.7650   -0.4470 C.ar    1  UNL1       -0.0564
     20  C14        5.0480    1.4850   -0.4120 C.ar    1  UNL1       -0.0614
     21  C15        6.2320    0.8330   -0.1440 C.ar    1  UNL1       -0.0617
     22  C16        6.2390   -0.5330    0.0880 C.ar    1  UNL1       -0.0614
     23  C17        5.0360   -1.2310    0.0450 C.ar    1  UNL1       -0.0564
     24 H          -0.7976   -0.7906   -1.1042 H       1  UNL1        0.0391
     25 H           0.1627    0.5360   -0.4946 H       1  UNL1        0.0391
     26 H          -2.7095    3.7869    0.3864 H       1  UNL1        0.1921
     27 H          -6.2974    0.9399   -0.0137 H       1  UNL1        0.0625
     28 H          -6.6224   -1.4137   -0.3964 H       1  UNL1        0.0618
     29 H          -4.6501   -2.8173   -0.6672 H       1  UNL1        0.0618
     30 H          -2.4441   -1.8785   -0.5517 H       1  UNL1        0.0624
     31 H           1.9336   -0.8515   -1.0522 H       1  UNL1        0.0595
     32 H           2.6696   -2.3207   -0.5035 H       1  UNL1        0.0595
     33 H           2.9774    1.2505   -0.6464 H       1  UNL1        0.0621
     34 H           5.0424    2.5023   -0.5853 H       1  UNL1        0.0618
     35 H           7.1165    1.3639   -0.1160 H       1  UNL1        0.0618
     36 H           7.1232   -1.0254    0.2897 H       1  UNL1        0.0618
     37 H           5.0292   -2.2489    0.2151 H       1  UNL1        0.0621
@<TRIPOS>UNITY_ATOM_ATTR
15 1
charge -1
@<TRIPOS>BOND
     1     1     2    2
     2     2     3    1
     3     2    15    1
     4     3     4    1
     5     4     5   ar
     6     4    14   ar
     7     5     6   ar
     8     6     7   ar
     9     7     8    2
    10     7     9   ar
    11     9    10   ar
    12     9    14   ar
    13    10    11   ar
    14    11    12   ar
    15    12    13   ar
    16    13    14   ar
    17    15    16    1
    18    16    17    1
    19    17    18    1
    20    18    19   ar
    21    18    23   ar
    22    19    20   ar
    23    20    21   ar
    24    21    22   ar
    25    22    23   ar
    26     3    24    1
    27     3    25    1
    28     6    26    1
    29    10    27    1
    30    11    28    1
    31    12    29    1
    32    13    30    1
    33    17    31    1
    34    17    32    1
    35    19    33    1
    36    20    34    1
    37    21    35    1
    38    22    36    1
    39    23    37    1
@<TRIPOS>MOLECULE
../data/bude_mols_rdkit_confs_charged/molecule_35.pdb
 37 39 0 0 0
SMALL
GASTEIGER

@<TRIPOS>ATOM
      1  O1        -0.4230    0.1420    0.6200 O.2     1  UNL1       -0.3166
      2  C1        -0.6100    1.2290    0.0240 C.2     1  UNL1        0.0711
      3  C2        -1.9930    1.7270   -0.1170 C.3     1  UNL1        0.0341
      4  C3        -2.9560    0.7930    0.5070 C.ar    1  UNL1        0.0749
      5  N1        -3.5450    1.0340    1.6960 N.ar    1  UNL1       -0.1749
      6  N2        -4.4010    0.1700    2.2150 N.ar    1  UNL1       -0.2425
      7  C4        -4.7330   -0.9820    1.6050 C.ar    1  UNL1        0.2725
      8  O2        -5.5420   -1.8140    2.0790 O.2     1  UNL1       -0.2658
      9  C5        -4.1670   -1.2940    0.3830 C.ar    1  UNL1        0.0496
     10  C6        -4.4670   -2.4600   -0.2920 C.ar    1  UNL1       -0.0487
     11  C7        -3.8560   -2.6920   -1.5060 C.ar    1  UNL1       -0.0610
     12  C8        -2.9680   -1.8260   -2.0740 C.ar    1  UNL1       -0.0611
     13  C9        -2.6760   -0.6490   -1.3760 C.ar    1  UNL1       -0.0521
     14  C10       -3.2670   -0.3810   -0.1590 C.ar    1  UNL1        0.0106
     15  N3         0.5220    1.9190   -0.4810 N.am    1  UNL1       -0.5171
     16  O3         1.6810    1.3010   -0.7950 O.3     1  UNL1       -0.4550
     17  C11        2.5830    1.5500    0.2330 C.3     1  UNL1        0.0554
     18  C12        3.8990    0.9080   -0.0180 C.ar    1  UNL1       -0.0233
     19  C13        4.1720   -0.3710    0.4200 C.ar    1  UNL1       -0.0564
     20  C14        5.3910   -0.9800    0.1930 C.ar    1  UNL1       -0.0614
     21  C15        6.3940   -0.3270   -0.4860 C.ar    1  UNL1       -0.0617
     22  C16        6.1380    0.9520   -0.9310 C.ar    1  UNL1       -0.0614
     23  C17        4.9030    1.5590   -0.6970 C.ar    1  UNL1       -0.0564
     24 H          -2.2252    1.8269   -1.1567 H       1  UNL1        0.0391
     25 H          -2.0674    2.6743    0.3749 H       1  UNL1        0.0391
     26 H          -4.8127    0.3787    3.0846 H       1  UNL1        0.1921
     27 H          -5.1331   -3.1422    0.1028 H       1  UNL1        0.0625
     28 H          -4.0816   -3.5639   -2.0099 H       1  UNL1        0.0618
     29 H          -2.5280   -2.0314   -2.9846 H       1  UNL1        0.0618
     30 H          -2.0089    0.0283   -1.7776 H       1  UNL1        0.0624
     31 H           2.1800    1.1672    1.1473 H       1  UNL1        0.0595
     32 H           2.7354    2.6074    0.2919 H       1  UNL1        0.0595
     33 H           3.4424   -0.8896    0.9337 H       1  UNL1        0.0621
     34 H           5.5519   -1.9393    0.5379 H       1  UNL1        0.0618
     35 H           7.3060   -0.7791   -0.6561 H       1  UNL1        0.0618
     36 H           6.8695    1.4681   -1.4443 H       1  UNL1        0.0618
     37 H           4.7393    2.5180   -1.0412 H       1  UNL1        0.0621
@<TRIPOS>UNITY_ATOM_ATTR
15 1
charge -1
@<TRIPOS>BOND
     1     1     2    2
     2     2     3    1
     3     2    15    1
     4     3     4    1
     5     4     5   ar
     6     4    14   ar
     7     5     6   ar
     8     6     7   ar
     9     7     8    2
    10     7     9   ar
    11     9    10   ar
    12     9    14   ar
    13    10    11   ar
    14    11    12   ar
    15    12    13   ar
    16    13    14   ar
    17    15    16    1
    18    16    17    1
    19    17    18    1
    20    18    19   ar
    21    18    23   ar
    22    19    20   ar
    23    20    21   ar
    24    21    22   ar
    25    22    23   ar
    26     3    24    1
    27     3    25    1
    28     6    26    1
    29    10    27    1
    30    11    28    1
    31    12    29    1
    32    13    30    1
    33    17    31    1
    34    17    32    1
    35    19    33    1
    36    20    34    1
    37    21    35    1
    38    22    36    1
    39    23    37    1
@<TRIPOS>MOLECULE
../data/bude_mols_rdkit_confs_charged/molecule_35.pdb
 37 39 0 0 0
SMALL
GASTEIGER

@<TRIPOS>ATOM
      1  O1         1.1470   -2.5030   -1.5970 O.2     1  UNL1       -0.3166
      2  C1         0.3920   -1.7030   -1.0070 C.2     1  UNL1        0.0711
      3  C2         0.7350   -1.2240    0.3550 C.3     1  UNL1        0.0341
      4  C3         1.7320   -0.1690    0.1920 C.ar    1  UNL1        0.0749
      5  N1         1.2210    1.0870   -0.0030 N.ar    1  UNL1       -0.1749
      6  N2         1.9280    2.1480   -0.2350 N.ar    1  UNL1       -0.2425
      7  C4         3.2690    2.0270   -0.2920 C.ar    1  UNL1        0.2725
      8  O2         3.9850    3.0160   -0.5180 O.2     1  UNL1       -0.2658
      9  C5         3.8530    0.7890   -0.1000 C.ar    1  UNL1        0.0496
     10  C6         5.2250    0.6440   -0.1260 C.ar    1  UNL1       -0.0487
     11  C7         5.8210   -0.5830    0.0900 C.ar    1  UNL1       -0.0610
     12  C8         5.0120   -1.6730    0.3330 C.ar    1  UNL1       -0.0611
     13  C9         3.6450   -1.5600    0.3650 C.ar    1  UNL1       -0.0521
     14  C10        3.0760   -0.3160    0.1440 C.ar    1  UNL1        0.0106
     15  N3        -0.7840   -1.2280   -1.5940 N.am    1  UNL1       -0.5171
     16  O3        -1.8860   -0.8840   -1.0530 O.3     1  UNL1       -0.4550
     17  C11       -2.1400    0.3780   -0.6170 C.3     1  UNL1        0.0554
     18  C12       -3.5640    0.3930   -0.1210 C.ar    1  UNL1       -0.0233
     19  C13       -3.9890    1.1630    0.9290 C.ar    1  UNL1       -0.0564
     20  C14       -5.3310    1.1190    1.2970 C.ar    1  UNL1       -0.0614
     21  C15       -6.2360    0.3110    0.6170 C.ar    1  UNL1       -0.0617
     22  C16       -5.7980   -0.4670   -0.4460 C.ar    1  UNL1       -0.0614
     23  C17       -4.4810   -0.4170   -0.7960 C.ar    1  UNL1       -0.0564
     24 H           1.1390   -2.0260    0.9368 H       1  UNL1        0.0391
     25 H          -0.1324   -0.8577    0.8632 H       1  UNL1        0.0391
     26 H           1.4953    3.0225   -0.3666 H       1  UNL1        0.1921
     27 H           5.8174    1.4686   -0.3105 H       1  UNL1        0.0625
     28 H           6.8481   -0.6819    0.0700 H       1  UNL1        0.0618
     29 H           5.4451   -2.5957    0.4946 H       1  UNL1        0.0618
     30 H           3.0527   -2.3846    0.5499 H       1  UNL1        0.0624
     31 H          -2.0230    1.0751   -1.4203 H       1  UNL1        0.0595
     32 H          -1.4609    0.6578    0.1611 H       1  UNL1        0.0595
     33 H          -3.3250    1.7662    1.4392 H       1  UNL1        0.0621
     34 H          -5.6596    1.6954    2.0874 H       1  UNL1        0.0618
     35 H          -7.2279    0.2899    0.9012 H       1  UNL1        0.0618
     36 H          -6.4565   -1.0717   -0.9615 H       1  UNL1        0.0618
     37 H          -4.1511   -0.9956   -1.5843 H       1  UNL1        0.0621
@<TRIPOS>UNITY_ATOM_ATTR
15 1
charge -1
@<TRIPOS>BOND
     1     1     2    2
     2     2     3    1
     3     2    15    1
     4     3     4    1
     5     4     5   ar
     6     4    14   ar
     7     5     6   ar
     8     6     7   ar
     9     7     8    2
    10     7     9   ar
    11     9    10   ar
    12     9    14   ar
    13    10    11   ar
    14    11    12   ar
    15    12    13   ar
    16    13    14   ar
    17    15    16    1
    18    16    17    1
    19    17    18    1
    20    18    19   ar
    21    18    23   ar
    22    19    20   ar
    23    20    21   ar
    24    21    22   ar
    25    22    23   ar
    26     3    24    1
    27     3    25    1
    28     6    26    1
    29    10    27    1
    30    11    28    1
    31    12    29    1
    32    13    30    1
    33    17    31    1
    34    17    32    1
    35    19    33    1
    36    20    34    1
    37    21    35    1
    38    22    36    1
    39    23    37    1
@<TRIPOS>MOLECULE
../data/bude_mols_rdkit_confs_charged/molecule_35.pdb
 37 39 0 0 0
SMALL
GASTEIGER

@<TRIPOS>ATOM
      1  O1        -0.9440    0.6290    1.6290 O.2     1  UNL1       -0.3166
      2  C1        -0.4330    0.7500    0.4870 C.2     1  UNL1        0.0711
      3  C2        -1.0080   -0.0220   -0.6250 C.3     1  UNL1        0.0341
      4  C3        -2.1400   -0.8220   -0.1570 C.ar    1  UNL1        0.0749
      5  N1        -1.9820   -2.1400    0.0520 N.ar    1  UNL1       -0.1749
      6  N2        -2.9470   -2.9240    0.4760 N.ar    1  UNL1       -0.2425
      7  C4        -4.1620   -2.3990    0.7200 C.ar    1  UNL1        0.2725
      8  O2        -5.1080   -3.1210    1.1260 O.2     1  UNL1       -0.2658
      9  C5        -4.3870   -1.0520    0.5240 C.ar    1  UNL1        0.0496
     10  C6        -5.6350   -0.4880    0.7690 C.ar    1  UNL1       -0.0487
     11  C7        -5.8030    0.8690    0.5540 C.ar    1  UNL1       -0.0610
     12  C8        -4.7790    1.6780    0.1080 C.ar    1  UNL1       -0.0611
     13  C9        -3.5350    1.1270   -0.1390 C.ar    1  UNL1       -0.0521
     14  C10       -3.3780   -0.2380    0.0810 C.ar    1  UNL1        0.0106
     15  N3         0.6720    1.6340    0.3520 N.am    1  UNL1       -0.5171
     16  O3         1.9330    1.3170    0.7110 O.3     1  UNL1       -0.4550
     17  C11        2.6170    0.9350   -0.4370 C.3     1  UNL1        0.0554
     18  C12        4.0240    0.5610   -0.1860 C.ar    1  UNL1       -0.0233
     19  C13        5.0480    1.4950   -0.3390 C.ar    1  UNL1       -0.0564
     20  C14        6.3680    1.1590   -0.1060 C.ar    1  UNL1       -0.0614
     21  C15        6.7230   -0.1140    0.2870 C.ar    1  UNL1       -0.0617
     22  C16        5.7190   -1.0440    0.4400 C.ar    1  UNL1       -0.0614
     23  C17        4.3930   -0.7060    0.2060 C.ar    1  UNL1       -0.0564
     24 H          -0.2593   -0.6718   -1.0277 H       1  UNL1        0.0391
     25 H          -1.3496    0.6561   -1.3790 H       1  UNL1        0.0391
     26 H          -2.7833   -3.8850    0.6138 H       1  UNL1        0.1921
     27 H          -6.4191   -1.0693    1.1041 H       1  UNL1        0.0625
     28 H          -6.7277    1.2905    0.7339 H       1  UNL1        0.0618
     29 H          -4.9399    2.6866   -0.0402 H       1  UNL1        0.0618
     30 H          -2.7507    1.7077   -0.4747 H       1  UNL1        0.0624
     31 H           2.6015    1.7516   -1.1283 H       1  UNL1        0.0595
     32 H           2.1243    0.0675   -0.8237 H       1  UNL1        0.0595
     33 H           4.8153    2.4567   -0.6322 H       1  UNL1        0.0621
     34 H           7.1018    1.8743   -0.2284 H       1  UNL1        0.0618
     35 H           7.7096   -0.3619    0.4609 H       1  UNL1        0.0618
     36 H           5.9554   -2.0050    0.7325 H       1  UNL1        0.0618
     37 H           3.6631   -1.4251    0.3294 H       1  UNL1        0.0621
@<TRIPOS>UNITY_ATOM_ATTR
15 1
charge -1
@<TRIPOS>BOND
     1     1     2    2
     2     2     3    1
     3     2    15    1
     4     3     4    1
     5     4     5   ar
     6     4    14   ar
     7     5     6   ar
     8     6     7   ar
     9     7     8    2
    10     7     9   ar
    11     9    10   ar
    12     9    14   ar
    13    10    11   ar
    14    11    12   ar
    15    12    13   ar
    16    13    14   ar
    17    15    16    1
    18    16    17    1
    19    17    18    1
    20    18    19   ar
    21    18    23   ar
    22    19    20   ar
    23    20    21   ar
    24    21    22   ar
    25    22    23   ar
    26     3    24    1
    27     3    25    1
    28     6    26    1
    29    10    27    1
    30    11    28    1
    31    12    29    1
    32    13    30    1
    33    17    31    1
    34    17    32    1
    35    19    33    1
    36    20    34    1
    37    21    35    1
    38    22    36    1
    39    23    37    1
@<TRIPOS>MOLECULE
../data/bude_mols_rdkit_confs_charged/molecule_35.pdb
 37 39 0 0 0
SMALL
GASTEIGER

@<TRIPOS>ATOM
      1  O1        -0.8130    1.7700    1.4180 O.2     1  UNL1       -0.3166
      2  C1        -0.3460    0.8930    0.6390 C.2     1  UNL1        0.0711
      3  C2        -0.7710   -0.5470    0.6570 C.3     1  UNL1        0.0341
      4  C3        -1.9410   -0.6100   -0.2170 C.ar    1  UNL1        0.0749
      5  N1        -1.7290   -1.0020   -1.4950 N.ar    1  UNL1       -0.1749
      6  N2        -2.6490   -1.0210   -2.4120 N.ar    1  UNL1       -0.2425
      7  C4        -3.9110   -0.6440   -2.1540 C.ar    1  UNL1        0.2725
      8  O2        -4.7910   -0.6660   -3.0490 O.2     1  UNL1       -0.2658
      9  C5        -4.1900   -0.2320   -0.8550 C.ar    1  UNL1        0.0496
     10  C6        -5.4830    0.1590   -0.5770 C.ar    1  UNL1       -0.0487
     11  C7        -5.7630    0.5660    0.7070 C.ar    1  UNL1       -0.0610
     12  C8        -4.7930    0.5850    1.6880 C.ar    1  UNL1       -0.0611
     13  C9        -3.4910    0.1900    1.4020 C.ar    1  UNL1       -0.0521
     14  C10       -3.1940   -0.2160    0.1280 C.ar    1  UNL1        0.0106
     15  N3         0.6120    1.3330   -0.2770 N.am    1  UNL1       -0.5171
     16  O3         1.8010    0.8730   -0.4670 O.3     1  UNL1       -0.4550
     17  C11        2.5100    0.7220    0.7210 C.3     1  UNL1        0.0554
     18  C12        3.8740    0.2420    0.3040 C.ar    1  UNL1       -0.0233
     19  C13        4.8310    1.2160    0.0540 C.ar    1  UNL1       -0.0564
     20  C14        6.0780    0.7740   -0.3340 C.ar    1  UNL1       -0.0614
     21  C15        6.3330   -0.5680   -0.4610 C.ar    1  UNL1       -0.0617
     22  C16        5.3760   -1.5290   -0.2110 C.ar    1  UNL1       -0.0614
     23  C17        4.1140   -1.0920    0.1820 C.ar    1  UNL1       -0.0564
     24 H          -1.0275   -0.8505    1.6505 H       1  UNL1        0.0391
     25 H           0.0105   -1.1997    0.3282 H       1  UNL1        0.0391
     26 H          -2.4143   -1.3198   -3.3202 H       1  UNL1        0.1921
     27 H          -6.2138    0.1467   -1.3055 H       1  UNL1        0.0625
     28 H          -6.7225    0.8645    0.9423 H       1  UNL1        0.0618
     29 H          -5.0359    0.8950    2.6419 H       1  UNL1        0.0618
     30 H          -2.7637    0.2024    2.1341 H       1  UNL1        0.0624
     31 H           2.0349    0.0012    1.3531 H       1  UNL1        0.0595
     32 H           2.5586    1.6342    1.2781 H       1  UNL1        0.0595
     33 H           4.6195    2.2212    0.1536 H       1  UNL1        0.0621
     34 H           6.8254    1.4580   -0.5304 H       1  UNL1        0.0618
     35 H           7.2754   -0.8694   -0.7543 H       1  UNL1        0.0618
     36 H           5.5874   -2.5341   -0.3115 H       1  UNL1        0.0618
     37 H           3.3658   -1.7748    0.3794 H       1  UNL1        0.0621
@<TRIPOS>UNITY_ATOM_ATTR
15 1
charge -1
@<TRIPOS>BOND
     1     1     2    2
     2     2     3    1
     3     2    15    1
     4     3     4    1
     5     4     5   ar
     6     4    14   ar
     7     5     6   ar
     8     6     7   ar
     9     7     8    2
    10     7     9   ar
    11     9    10   ar
    12     9    14   ar
    13    10    11   ar
    14    11    12   ar
    15    12    13   ar
    16    13    14   ar
    17    15    16    1
    18    16    17    1
    19    17    18    1
    20    18    19   ar
    21    18    23   ar
    22    19    20   ar
    23    20    21   ar
    24    21    22   ar
    25    22    23   ar
    26     3    24    1
    27     3    25    1
    28     6    26    1
    29    10    27    1
    30    11    28    1
    31    12    29    1
    32    13    30    1
    33    17    31    1
    34    17    32    1
    35    19    33    1
    36    20    34    1
    37    21    35    1
    38    22    36    1
    39    23    37    1
@<TRIPOS>MOLECULE
../data/bude_mols_rdkit_confs_charged/molecule_35.pdb
 37 39 0 0 0
SMALL
GASTEIGER

@<TRIPOS>ATOM
      1  O1        -1.2040    2.3710   -0.8420 O.2     1  UNL1       -0.3166
      2  C1        -0.3800    1.4170   -0.7880 C.2     1  UNL1        0.0711
      3  C2        -0.6350    0.1510   -0.0840 C.3     1  UNL1        0.0341
      4  C3        -1.9480    0.0770    0.5640 C.ar    1  UNL1        0.0749
      5  N1        -2.1340    0.2060    1.8920 N.ar    1  UNL1       -0.1749
      6  N2        -3.3470    0.1320    2.4520 N.ar    1  UNL1       -0.2425
      7  C4        -4.4580   -0.0740    1.7380 C.ar    1  UNL1        0.2725
      8  O2        -5.5890   -0.1360    2.3170 O.2     1  UNL1       -0.2658
      9  C5        -4.3470   -0.2160    0.3660 C.ar    1  UNL1        0.0496
     10  C6        -5.4730   -0.4280   -0.3860 C.ar    1  UNL1       -0.0487
     11  C7        -5.3570   -0.5700   -1.7550 C.ar    1  UNL1       -0.0610
     12  C8        -4.1340   -0.5000   -2.3570 C.ar    1  UNL1       -0.0611
     13  C9        -3.0100   -0.2850   -1.5770 C.ar    1  UNL1       -0.0521
     14  C10       -3.0750   -0.1370   -0.2040 C.ar    1  UNL1        0.0106
     15  N3         0.8720    1.5700   -1.4450 N.am    1  UNL1       -0.5171
     16  O3         2.0420    1.3820   -0.8160 O.3     1  UNL1       -0.4550
     17  C11        2.5550    0.1090   -0.9960 C.3     1  UNL1        0.0554
     18  C12        3.8460   -0.0150   -0.2700 C.ar    1  UNL1       -0.0233
     19  C13        4.3700    1.0530    0.4040 C.ar    1  UNL1       -0.0564
     20  C14        5.5620    0.9080    1.0660 C.ar    1  UNL1       -0.0614
     21  C15        6.2680   -0.2820    1.0840 C.ar    1  UNL1       -0.0617
     22  C16        5.7130   -1.3390    0.3950 C.ar    1  UNL1       -0.0614
     23  C17        4.5170   -1.2130   -0.2760 C.ar    1  UNL1       -0.0564
     24 H           0.1171    0.0273    0.6669 H       1  UNL1        0.0391
     25 H          -0.6135   -0.6217   -0.8239 H       1  UNL1        0.0391
     26 H          -3.4242    0.2333    3.4282 H       1  UNL1        0.1921
     27 H          -6.3990   -0.4810    0.0664 H       1  UNL1        0.0625
     28 H          -6.2011   -0.7302   -2.3268 H       1  UNL1        0.0618
     29 H          -4.0480   -0.6059   -3.3799 H       1  UNL1        0.0618
     30 H          -2.0884   -0.2333   -2.0385 H       1  UNL1        0.0624
     31 H           2.7148   -0.0664   -2.0394 H       1  UNL1        0.0595
     32 H           1.8617   -0.6110   -0.6141 H       1  UNL1        0.0595
     33 H           3.8740    1.9579    0.4144 H       1  UNL1        0.0621
     34 H           5.9487    1.7201    1.5719 H       1  UNL1        0.0618
     35 H           7.1642   -0.3734    1.5875 H       1  UNL1        0.0618
     36 H           6.2052   -2.2460    0.3817 H       1  UNL1        0.0618
     37 H           4.1242   -2.0206   -0.7844 H       1  UNL1        0.0621
@<TRIPOS>UNITY_ATOM_ATTR
15 1
charge -1
@<TRIPOS>BOND
     1     1     2    2
     2     2     3    1
     3     2    15    1
     4     3     4    1
     5     4     5   ar
     6     4    14   ar
     7     5     6   ar
     8     6     7   ar
     9     7     8    2
    10     7     9   ar
    11     9    10   ar
    12     9    14   ar
    13    10    11   ar
    14    11    12   ar
    15    12    13   ar
    16    13    14   ar
    17    15    16    1
    18    16    17    1
    19    17    18    1
    20    18    19   ar
    21    18    23   ar
    22    19    20   ar
    23    20    21   ar
    24    21    22   ar
    25    22    23   ar
    26     3    24    1
    27     3    25    1
    28     6    26    1
    29    10    27    1
    30    11    28    1
    31    12    29    1
    32    13    30    1
    33    17    31    1
    34    17    32    1
    35    19    33    1
    36    20    34    1
    37    21    35    1
    38    22    36    1
    39    23    37    1
@<TRIPOS>MOLECULE
../data/bude_mols_rdkit_confs_charged/molecule_35.pdb
 37 39 0 0 0
SMALL
GASTEIGER

@<TRIPOS>ATOM
      1  O1         0.1370   -1.6020    1.8890 O.2     1  UNL1       -0.3166
      2  C1         0.1690   -1.2830    0.6780 C.2     1  UNL1        0.0711
      3  C2        -1.0630   -1.2960   -0.1650 C.3     1  UNL1        0.0341
      4  C3        -1.9750   -0.2220    0.3020 C.ar    1  UNL1        0.0749
      5  N1        -1.6630    0.5740    1.3600 N.ar    1  UNL1       -0.1749
      6  N2        -2.4610    1.5450    1.7660 N.ar    1  UNL1       -0.2425
      7  C4        -3.6230    1.7800    1.1380 C.ar    1  UNL1        0.2725
      8  O2        -4.4120    2.6910    1.4860 O.2     1  UNL1       -0.2658
      9  C5        -4.0060    1.0040    0.0480 C.ar    1  UNL1        0.0496
     10  C6        -5.1820    1.2060   -0.6170 C.ar    1  UNL1       -0.0487
     11  C7        -5.4930    0.3930   -1.6830 C.ar    1  UNL1       -0.0610
     12  C8        -4.6700   -0.6250   -2.1180 C.ar    1  UNL1       -0.0611
     13  C9        -3.4810   -0.8120   -1.4270 C.ar    1  UNL1       -0.0521
     14  C10       -3.1600   -0.0040   -0.3600 C.ar    1  UNL1        0.0106
     15  N3         1.3940   -0.9010    0.1070 N.am    1  UNL1       -0.5171
     16  O3         2.0820   -1.7410   -0.6760 O.3     1  UNL1       -0.4550
     17  C11        3.3340   -2.0240   -0.0740 C.3     1  UNL1        0.0554
     18  C12        3.9850   -0.7030    0.0780 C.ar    1  UNL1       -0.0233
     19  C13        4.9270   -0.2430   -0.8110 C.ar    1  UNL1       -0.0564
     20  C14        5.5350    0.9890   -0.6760 C.ar    1  UNL1       -0.0614
     21  C15        5.1880    1.7870    0.3840 C.ar    1  UNL1       -0.0617
     22  C16        4.2460    1.3480    1.2890 C.ar    1  UNL1       -0.0614
     23  C17        3.6430    0.1120    1.1440 C.ar    1  UNL1       -0.0564
     24 H          -1.5496   -2.2448   -0.0757 H       1  UNL1        0.0391
     25 H          -0.8033   -1.1316   -1.1899 H       1  UNL1        0.0391
     26 H          -2.2010    2.1009    2.5358 H       1  UNL1        0.1921
     27 H          -5.8272    1.9565   -0.3246 H       1  UNL1        0.0625
     28 H          -6.3833    0.5524   -2.1800 H       1  UNL1        0.0618
     29 H          -4.9268   -1.2205   -2.9208 H       1  UNL1        0.0618
     30 H          -2.8332   -1.5619   -1.7151 H       1  UNL1        0.0624
     31 H           3.9189   -2.6629   -0.7022 H       1  UNL1        0.0595
     32 H           3.2278   -2.5330    0.8612 H       1  UNL1        0.0595
     33 H           5.1897   -0.8414   -1.6097 H       1  UNL1        0.0621
     34 H           6.2391    1.3043   -1.3615 H       1  UNL1        0.0618
     35 H           5.6302    2.7118    0.5034 H       1  UNL1        0.0618
     36 H           3.9869    1.9501    2.0861 H       1  UNL1        0.0618
     37 H           2.9388   -0.2027    1.8296 H       1  UNL1        0.0621
@<TRIPOS>UNITY_ATOM_ATTR
15 1
charge -1
@<TRIPOS>BOND
     1     1     2    2
     2     2     3    1
     3     2    15    1
     4     3     4    1
     5     4     5   ar
     6     4    14   ar
     7     5     6   ar
     8     6     7   ar
     9     7     8    2
    10     7     9   ar
    11     9    10   ar
    12     9    14   ar
    13    10    11   ar
    14    11    12   ar
    15    12    13   ar
    16    13    14   ar
    17    15    16    1
    18    16    17    1
    19    17    18    1
    20    18    19   ar
    21    18    23   ar
    22    19    20   ar
    23    20    21   ar
    24    21    22   ar
    25    22    23   ar
    26     3    24    1
    27     3    25    1
    28     6    26    1
    29    10    27    1
    30    11    28    1
    31    12    29    1
    32    13    30    1
    33    17    31    1
    34    17    32    1
    35    19    33    1
    36    20    34    1
    37    21    35    1
    38    22    36    1
    39    23    37    1
@<TRIPOS>MOLECULE
../data/bude_mols_rdkit_confs_charged/molecule_35.pdb
 37 39 0 0 0
SMALL
GASTEIGER

@<TRIPOS>ATOM
      1  O1        -0.5450    1.8320    1.5810 O.2     1  UNL1       -0.3166
      2  C1        -0.0750    1.2780    0.6130 C.2     1  UNL1        0.0711
      3  C2        -0.8140    1.1160   -0.6500 C.3     1  UNL1        0.0341
      4  C3        -1.8560    0.0720   -0.5310 C.ar    1  UNL1        0.0749
      5  N1        -1.4970   -1.2050   -0.8460 N.ar    1  UNL1       -0.1749
      6  N2        -2.2870   -2.2370   -0.7160 N.ar    1  UNL1       -0.2425
      7  C4        -3.5250   -2.0250   -0.2470 C.ar    1  UNL1        0.2725
      8  O2        -4.2910   -3.0350   -0.1220 O.2     1  UNL1       -0.2658
      9  C5        -3.9920   -0.7740    0.0970 C.ar    1  UNL1        0.0496
     10  C6        -5.2740   -0.5740    0.5550 C.ar    1  UNL1       -0.0487
     11  C7        -5.6670    0.7040    0.8560 C.ar    1  UNL1       -0.0610
     12  C8        -4.8150    1.7660    0.7070 C.ar    1  UNL1       -0.0611
     13  C9        -3.5420    1.5780    0.2530 C.ar    1  UNL1       -0.0521
     14  C10       -3.0970    0.2990   -0.0640 C.ar    1  UNL1        0.0106
     15  N3         1.2600    0.7200    0.6320 N.am    1  UNL1       -0.5171
     16  O3         1.3860   -0.5140    0.0300 O.3     1  UNL1       -0.4550
     17  C11        2.3500   -0.5870   -0.9390 C.3     1  UNL1        0.0554
     18  C12        3.6700   -0.3260   -0.3460 C.ar    1  UNL1       -0.0233
     19  C13        4.4940    0.6220   -0.8370 C.ar    1  UNL1       -0.0564
     20  C14        5.7360    0.8180   -0.2340 C.ar    1  UNL1       -0.0614
     21  C15        6.1120    0.0540    0.8400 C.ar    1  UNL1       -0.0617
     22  C16        5.2340   -0.8940    1.2970 C.ar    1  UNL1       -0.0614
     23  C17        4.0130   -1.1290    0.7500 C.ar    1  UNL1       -0.0564
     24 H          -0.1279    0.8377   -1.4225 H       1  UNL1        0.0391
     25 H          -1.2906    2.0448   -0.8849 H       1  UNL1        0.0391
     26 H          -1.9829   -3.1423   -0.9550 H       1  UNL1        0.1921
     27 H          -5.9241   -1.3674    0.6691 H       1  UNL1        0.0625
     28 H          -6.6250    0.8696    1.2022 H       1  UNL1        0.0618
     29 H          -5.1390    2.7176    0.9404 H       1  UNL1        0.0618
     30 H          -2.9088    2.3857    0.1447 H       1  UNL1        0.0624
     31 H           2.1496    0.1425   -1.6957 H       1  UNL1        0.0595
     32 H           2.3435   -1.5654   -1.3721 H       1  UNL1        0.0595
     33 H           4.2095    1.1942   -1.6474 H       1  UNL1        0.0621
     34 H           6.3751    1.5418   -0.5982 H       1  UNL1        0.0618
     35 H           7.0301    0.1887    1.2917 H       1  UNL1        0.0618
     36 H           5.5185   -1.4654    2.1079 H       1  UNL1        0.0618
     37 H           3.3775   -1.8538    1.1186 H       1  UNL1        0.0621
@<TRIPOS>UNITY_ATOM_ATTR
15 1
charge -1
@<TRIPOS>BOND
     1     1     2    2
     2     2     3    1
     3     2    15    1
     4     3     4    1
     5     4     5   ar
     6     4    14   ar
     7     5     6   ar
     8     6     7   ar
     9     7     8    2
    10     7     9   ar
    11     9    10   ar
    12     9    14   ar
    13    10    11   ar
    14    11    12   ar
    15    12    13   ar
    16    13    14   ar
    17    15    16    1
    18    16    17    1
    19    17    18    1
    20    18    19   ar
    21    18    23   ar
    22    19    20   ar
    23    20    21   ar
    24    21    22   ar
    25    22    23   ar
    26     3    24    1
    27     3    25    1
    28     6    26    1
    29    10    27    1
    30    11    28    1
    31    12    29    1
    32    13    30    1
    33    17    31    1
    34    17    32    1
    35    19    33    1
    36    20    34    1
    37    21    35    1
    38    22    36    1
    39    23    37    1
@<TRIPOS>MOLECULE
../data/bude_mols_rdkit_confs_charged/molecule_35.pdb
 37 39 0 0 0
SMALL
GASTEIGER

@<TRIPOS>ATOM
      1  O1        -0.4160   -0.4830    1.5200 O.2     1  UNL1       -0.3166
      2  C1        -0.0520   -0.7320    0.3430 C.2     1  UNL1        0.0711
      3  C2        -0.9680   -1.1430   -0.7230 C.3     1  UNL1        0.0341
      4  C3        -2.3630   -1.2230   -0.2200 C.ar    1  UNL1        0.0749
      5  N1        -2.9350   -2.4360    0.0350 N.ar    1  UNL1       -0.1749
      6  N2        -4.1710   -2.5290    0.4810 N.ar    1  UNL1       -0.2425
      7  C4        -4.8850   -1.4130    0.6890 C.ar    1  UNL1        0.2725
      8  O2        -6.0560   -1.5380    1.1130 O.2     1  UNL1       -0.2658
      9  C5        -4.3880   -0.1470    0.4580 C.ar    1  UNL1        0.0496
     10  C6        -5.1320    0.9960    0.6740 C.ar    1  UNL1       -0.0487
     11  C7        -4.5900    2.2530    0.4260 C.ar    1  UNL1       -0.0610
     12  C8        -3.2960    2.3450   -0.0400 C.ar    1  UNL1       -0.0611
     13  C9        -2.5560    1.2060   -0.2550 C.ar    1  UNL1       -0.0521
     14  C10       -3.0870   -0.0660   -0.0110 C.ar    1  UNL1        0.0106
     15  N3         1.3400   -0.6000    0.0520 N.am    1  UNL1       -0.5171
     16  O3         1.9500   -1.3960   -0.8690 O.3     1  UNL1       -0.4550
     17  C11        2.8480   -0.6150   -1.5900 C.3     1  UNL1        0.0554
     18  C12        3.8600   -0.0370   -0.6700 C.ar    1  UNL1       -0.0233
     19  C13        3.7250    1.2220   -0.1090 C.ar    1  UNL1       -0.0564
     20  C14        4.6870    1.7250    0.7410 C.ar    1  UNL1       -0.0614
     21  C15        5.8070    0.9600    1.0390 C.ar    1  UNL1       -0.0617
     22  C16        5.9590   -0.2930    0.4910 C.ar    1  UNL1       -0.0614
     23  C17        4.9880   -0.7620   -0.3460 C.ar    1  UNL1       -0.0564
     24 H          -0.6716   -2.1039   -1.0887 H       1  UNL1        0.0391
     25 H          -0.9281   -0.4165   -1.5076 H       1  UNL1        0.0391
     26 H          -4.5679   -3.4119    0.6604 H       1  UNL1        0.1921
     27 H          -6.1000    0.9170    1.0230 H       1  UNL1        0.0625
     28 H          -5.1491    3.1050    0.5887 H       1  UNL1        0.0618
     29 H          -2.8814    3.2712   -0.2281 H       1  UNL1        0.0618
     30 H          -1.5884    1.2908   -0.6037 H       1  UNL1        0.0624
     31 H           2.3186    0.1761   -2.0786 H       1  UNL1        0.0595
     32 H           3.3396   -1.2233   -2.3202 H       1  UNL1        0.0595
     33 H           2.8931    1.7913   -0.3302 H       1  UNL1        0.0621
     34 H           4.5754    2.6644    1.1533 H       1  UNL1        0.0618
     35 H           6.5291    1.3332    1.6748 H       1  UNL1        0.0618
     36 H           6.7894   -0.8660    0.7082 H       1  UNL1        0.0618
     37 H           5.1031   -1.7024   -0.7553 H       1  UNL1        0.0621
@<TRIPOS>UNITY_ATOM_ATTR
15 1
charge -1
@<TRIPOS>BOND
     1     1     2    2
     2     2     3    1
     3     2    15    1
     4     3     4    1
     5     4     5   ar
     6     4    14   ar
     7     5     6   ar
     8     6     7   ar
     9     7     8    2
    10     7     9   ar
    11     9    10   ar
    12     9    14   ar
    13    10    11   ar
    14    11    12   ar
    15    12    13   ar
    16    13    14   ar
    17    15    16    1
    18    16    17    1
    19    17    18    1
    20    18    19   ar
    21    18    23   ar
    22    19    20   ar
    23    20    21   ar
    24    21    22   ar
    25    22    23   ar
    26     3    24    1
    27     3    25    1
    28     6    26    1
    29    10    27    1
    30    11    28    1
    31    12    29    1
    32    13    30    1
    33    17    31    1
    34    17    32    1
    35    19    33    1
    36    20    34    1
    37    21    35    1
    38    22    36    1
    39    23    37    1
@<TRIPOS>MOLECULE
../data/bude_mols_rdkit_confs_charged/molecule_35.pdb
 37 39 0 0 0
SMALL
GASTEIGER

@<TRIPOS>ATOM
      1  O1        -0.5810   -0.2950    1.6460 O.2     1  UNL1       -0.3166
      2  C1        -0.2720   -0.8010    0.5400 C.2     1  UNL1        0.0711
      3  C2        -0.9570   -0.5090   -0.7440 C.3     1  UNL1        0.0341
      4  C3        -2.0900    0.4220   -0.6170 C.ar    1  UNL1        0.0749
      5  N1        -2.0230    1.7130   -0.9850 N.ar    1  UNL1       -0.1749
      6  N2        -3.0610    2.5440   -0.8680 N.ar    1  UNL1       -0.2425
      7  C4        -4.2510    2.1640   -0.3780 C.ar    1  UNL1        0.2725
      8  O2        -5.1710    3.0100   -0.3030 O.2     1  UNL1       -0.2658
      9  C5        -4.3860    0.8630    0.0150 C.ar    1  UNL1        0.0496
     10  C6        -5.5810    0.3970    0.5290 C.ar    1  UNL1       -0.0487
     11  C7        -5.7170   -0.9230    0.9260 C.ar    1  UNL1       -0.0610
     12  C8        -4.6490   -1.7950    0.8100 C.ar    1  UNL1       -0.0611
     13  C9        -3.4510   -1.2980    0.2870 C.ar    1  UNL1       -0.0521
     14  C10       -3.3250    0.0090   -0.1030 C.ar    1  UNL1        0.0106
     15  N3         0.8040   -1.7170    0.5070 N.am    1  UNL1       -0.5171
     16  O3         2.0980   -1.4400    0.4700 O.3     1  UNL1       -0.4550
     17  C11        2.4430   -0.1830    0.0470 C.3     1  UNL1        0.0554
     18  C12        3.9420   -0.0960    0.0800 C.ar    1  UNL1       -0.0233
     19  C13        4.5300    0.3000    1.2570 C.ar    1  UNL1       -0.0564
     20  C14        5.9060    0.3840    1.2990 C.ar    1  UNL1       -0.0614
     21  C15        6.6800    0.0830    0.1970 C.ar    1  UNL1       -0.0617
     22  C16        6.0310   -0.3110   -0.9650 C.ar    1  UNL1       -0.0614
     23  C17        4.6590   -0.4110   -1.0540 C.ar    1  UNL1       -0.0564
     24 H          -1.3215   -1.4301   -1.1485 H       1  UNL1        0.0391
     25 H          -0.2372   -0.0375   -1.3799 H       1  UNL1        0.0391
     26 H          -2.9483    3.4791   -1.1545 H       1  UNL1        0.1921
     27 H          -6.3826    1.0408    0.6182 H       1  UNL1        0.0625
     28 H          -6.6156   -1.2564    1.3086 H       1  UNL1        0.0618
     29 H          -4.7339   -2.7816    1.1004 H       1  UNL1        0.0618
     30 H          -2.6419   -1.9316    0.1926 H       1  UNL1        0.0624
     31 H           2.0192    0.5519    0.6991 H       1  UNL1        0.0595
     32 H           2.0748   -0.0017   -0.9412 H       1  UNL1        0.0595
     33 H           3.9586    0.5280    2.0856 H       1  UNL1        0.0621
     34 H           6.3670    0.6785    2.1741 H       1  UNL1        0.0618
     35 H           7.7092    0.1488    0.2356 H       1  UNL1        0.0618
     36 H           6.5988   -0.5384   -1.7962 H       1  UNL1        0.0618
     37 H           4.1924   -0.7068   -1.9257 H       1  UNL1        0.0621
@<TRIPOS>UNITY_ATOM_ATTR
15 1
charge -1
@<TRIPOS>BOND
     1     1     2    2
     2     2     3    1
     3     2    15    1
     4     3     4    1
     5     4     5   ar
     6     4    14   ar
     7     5     6   ar
     8     6     7   ar
     9     7     8    2
    10     7     9   ar
    11     9    10   ar
    12     9    14   ar
    13    10    11   ar
    14    11    12   ar
    15    12    13   ar
    16    13    14   ar
    17    15    16    1
    18    16    17    1
    19    17    18    1
    20    18    19   ar
    21    18    23   ar
    22    19    20   ar
    23    20    21   ar
    24    21    22   ar
    25    22    23   ar
    26     3    24    1
    27     3    25    1
    28     6    26    1
    29    10    27    1
    30    11    28    1
    31    12    29    1
    32    13    30    1
    33    17    31    1
    34    17    32    1
    35    19    33    1
    36    20    34    1
    37    21    35    1
    38    22    36    1
    39    23    37    1
@<TRIPOS>MOLECULE
../data/bude_mols_rdkit_confs_charged/molecule_35.pdb
 37 39 0 0 0
SMALL
GASTEIGER

@<TRIPOS>ATOM
      1  O1         0.3570   -0.4830    0.8860 O.2     1  UNL1       -0.3166
      2  C1         0.0610   -0.4760   -0.3420 C.2     1  UNL1        0.0711
      3  C2         1.0630   -0.8210   -1.4050 C.3     1  UNL1        0.0341
      4  C3         2.3450   -1.0730   -0.6790 C.ar    1  UNL1        0.0749
      5  N1         2.8120   -2.3120   -0.4780 N.ar    1  UNL1       -0.1749
      6  N2         3.9500   -2.5210    0.1660 N.ar    1  UNL1       -0.2425
      7  C4         4.6980   -1.5180    0.6530 C.ar    1  UNL1        0.2725
      8  O2         5.7660   -1.7620    1.2560 O.2     1  UNL1       -0.2658
      9  C5         4.2960   -0.2060    0.4940 C.ar    1  UNL1        0.0496
     10  C6         5.0410    0.8520    0.9830 C.ar    1  UNL1       -0.0487
     11  C7         4.6100    2.1490    0.8080 C.ar    1  UNL1       -0.0610
     12  C8         3.4230    2.3230    0.1350 C.ar    1  UNL1       -0.0611
     13  C9         2.6710    1.2900   -0.3570 C.ar    1  UNL1       -0.0521
     14  C10        3.0910   -0.0080   -0.1900 C.ar    1  UNL1        0.0106
     15  N3        -1.2310   -0.1360   -0.7340 N.am    1  UNL1       -0.5171
     16  O3        -1.9750   -0.9120   -1.5110 O.3     1  UNL1       -0.4550
     17  C11       -3.0590   -1.4890   -0.8170 C.3     1  UNL1        0.0554
     18  C12       -3.9410   -0.4210   -0.2540 C.ar    1  UNL1       -0.0233
     19  C13       -3.7830   -0.0110    1.0730 C.ar    1  UNL1       -0.0564
     20  C14       -4.5610    0.9580    1.6370 C.ar    1  UNL1       -0.0614
     21  C15       -5.5420    1.5800    0.9230 C.ar    1  UNL1       -0.0617
     22  C16       -5.7260    1.1970   -0.3950 C.ar    1  UNL1       -0.0614
     23  C17       -4.9320    0.2070   -0.9730 C.ar    1  UNL1       -0.0564
     24 H           1.1754   -0.0076   -2.0910 H       1  UNL1        0.0391
     25 H           0.7573   -1.6717   -1.9775 H       1  UNL1        0.0391
     26 H           4.2594   -3.4470    0.2925 H       1  UNL1        0.1921
     27 H           5.9254    0.6687    1.4822 H       1  UNL1        0.0625
     28 H           5.1519    2.9516    1.1648 H       1  UNL1        0.0618
     29 H           3.0801    3.2860   -0.0070 H       1  UNL1        0.0618
     30 H           1.7879    1.4862   -0.8537 H       1  UNL1        0.0624
     31 H          -2.6847   -2.0952   -0.0186 H       1  UNL1        0.0595
     32 H          -3.6281   -2.0887   -1.4962 H       1  UNL1        0.0595
     33 H          -3.0510   -0.4575    1.6473 H       1  UNL1        0.0621
     34 H          -4.4040    1.2248    2.6215 H       1  UNL1        0.0618
     35 H          -6.1288    2.3130    1.3512 H       1  UNL1        0.0618
     36 H          -6.4620    1.6512   -0.9581 H       1  UNL1        0.0618
     37 H          -5.0904   -0.0594   -1.9574 H       1  UNL1        0.0621
@<TRIPOS>UNITY_ATOM_ATTR
15 1
charge -1
@<TRIPOS>BOND
     1     1     2    2
     2     2     3    1
     3     2    15    1
     4     3     4    1
     5     4     5   ar
     6     4    14   ar
     7     5     6   ar
     8     6     7   ar
     9     7     8    2
    10     7     9   ar
    11     9    10   ar
    12     9    14   ar
    13    10    11   ar
    14    11    12   ar
    15    12    13   ar
    16    13    14   ar
    17    15    16    1
    18    16    17    1
    19    17    18    1
    20    18    19   ar
    21    18    23   ar
    22    19    20   ar
    23    20    21   ar
    24    21    22   ar
    25    22    23   ar
    26     3    24    1
    27     3    25    1
    28     6    26    1
    29    10    27    1
    30    11    28    1
    31    12    29    1
    32    13    30    1
    33    17    31    1
    34    17    32    1
    35    19    33    1
    36    20    34    1
    37    21    35    1
    38    22    36    1
    39    23    37    1
@<TRIPOS>MOLECULE
../data/bude_mols_rdkit_confs_charged/molecule_35.pdb
 37 39 0 0 0
SMALL
GASTEIGER

@<TRIPOS>ATOM
      1  O1        -0.9520    1.6740    1.1310 O.2     1  UNL1       -0.3166
      2  C1        -0.3660    0.6770    0.5280 C.2     1  UNL1        0.0711
      3  C2        -0.9710   -0.6440    0.7060 C.3     1  UNL1        0.0341
      4  C3        -2.2210   -0.8140   -0.0730 C.ar    1  UNL1        0.0749
      5  N1        -2.1280   -1.3960   -1.3150 N.ar    1  UNL1       -0.1749
      6  N2        -3.1780   -1.5180   -2.1030 N.ar    1  UNL1       -0.2425
      7  C4        -4.4070   -1.0960   -1.7690 C.ar    1  UNL1        0.2725
      8  O2        -5.3990   -1.2190   -2.5330 O.2     1  UNL1       -0.2658
      9  C5        -4.5680   -0.4990   -0.5200 C.ar    1  UNL1        0.0496
     10  C6        -5.8200   -0.0560   -0.1280 C.ar    1  UNL1       -0.0487
     11  C7        -6.0070    0.5280    1.1050 C.ar    1  UNL1       -0.0610
     12  C8        -4.9050    0.6450    1.9220 C.ar    1  UNL1       -0.0611
     13  C9        -3.6570    0.2020    1.5340 C.ar    1  UNL1       -0.0521
     14  C10       -3.4610   -0.3790    0.2940 C.ar    1  UNL1        0.0106
     15  N3         0.7320    1.0130   -0.1960 N.am    1  UNL1       -0.5171
     16  O3         1.9790    0.8980   -0.3160 O.3     1  UNL1       -0.4550
     17  C11        2.7620    0.1170    0.4760 C.3     1  UNL1        0.0554
     18  C12        4.2040    0.2510    0.0310 C.ar    1  UNL1       -0.0233
     19  C13        4.7100    1.4810   -0.2830 C.ar    1  UNL1       -0.0564
     20  C14        6.0240    1.6500   -0.7050 C.ar    1  UNL1       -0.0614
     21  C15        6.8500    0.5560   -0.8120 C.ar    1  UNL1       -0.0617
     22  C16        6.3350   -0.6780   -0.4920 C.ar    1  UNL1       -0.0614
     23  C17        5.0310   -0.8470   -0.0760 C.ar    1  UNL1       -0.0564
     24 H          -1.1937   -0.7809    1.7436 H       1  UNL1        0.0391
     25 H          -0.2694   -1.3697    0.3511 H       1  UNL1        0.0391
     26 H          -3.0536   -1.9412   -2.9832 H       1  UNL1        0.1921
     27 H          -6.6226   -0.1648   -0.7676 H       1  UNL1        0.0625
     28 H          -6.9355    0.8643    1.4045 H       1  UNL1        0.0618
     29 H          -5.0156    1.0770    2.8527 H       1  UNL1        0.0618
     30 H          -2.8578    0.3057    2.1787 H       1  UNL1        0.0624
     31 H           2.4536   -0.9040    0.3900 H       1  UNL1        0.0595
     32 H           2.6683    0.4279    1.4955 H       1  UNL1        0.0595
     33 H           4.0988    2.3088   -0.2046 H       1  UNL1        0.0621
     34 H           6.3774    2.5915   -0.9367 H       1  UNL1        0.0618
     35 H           7.8285    0.6582   -1.1236 H       1  UNL1        0.0618
     36 H           6.9456   -1.5067   -0.5657 H       1  UNL1        0.0618
     37 H           4.6767   -1.7887    0.1536 H       1  UNL1        0.0621
@<TRIPOS>UNITY_ATOM_ATTR
15 1
charge -1
@<TRIPOS>BOND
     1     1     2    2
     2     2     3    1
     3     2    15    1
     4     3     4    1
     5     4     5   ar
     6     4    14   ar
     7     5     6   ar
     8     6     7   ar
     9     7     8    2
    10     7     9   ar
    11     9    10   ar
    12     9    14   ar
    13    10    11   ar
    14    11    12   ar
    15    12    13   ar
    16    13    14   ar
    17    15    16    1
    18    16    17    1
    19    17    18    1
    20    18    19   ar
    21    18    23   ar
    22    19    20   ar
    23    20    21   ar
    24    21    22   ar
    25    22    23   ar
    26     3    24    1
    27     3    25    1
    28     6    26    1
    29    10    27    1
    30    11    28    1
    31    12    29    1
    32    13    30    1
    33    17    31    1
    34    17    32    1
    35    19    33    1
    36    20    34    1
    37    21    35    1
    38    22    36    1
    39    23    37    1
@<TRIPOS>MOLECULE
../data/bude_mols_rdkit_confs_charged/molecule_35.pdb
 37 39 0 0 0
SMALL
GASTEIGER

@<TRIPOS>ATOM
      1  O1        -0.7230    0.4680   -1.1470 O.2     1  UNL1       -0.3166
      2  C1        -0.0760   -0.1090   -0.2390 C.2     1  UNL1        0.0711
      3  C2        -0.7810   -1.1410    0.5680 C.3     1  UNL1        0.0341
      4  C3        -2.1850   -1.3070    0.1320 C.ar    1  UNL1        0.0749
      5  N1        -2.5900   -2.3620   -0.6090 N.ar    1  UNL1       -0.1749
      6  N2        -3.8410   -2.5260   -1.0080 N.ar    1  UNL1       -0.2425
      7  C4        -4.7320   -1.5850   -0.6470 C.ar    1  UNL1        0.2725
      8  O2        -5.9170   -1.7420   -1.0260 O.2     1  UNL1       -0.2658
      9  C5        -4.4000   -0.4780    0.1080 C.ar    1  UNL1        0.0496
     10  C6        -5.3210    0.4870    0.4770 C.ar    1  UNL1       -0.0487
     11  C7        -4.9680    1.5960    1.2380 C.ar    1  UNL1       -0.0610
     12  C8        -3.6600    1.7340    1.6350 C.ar    1  UNL1       -0.0611
     13  C9        -2.7300    0.7700    1.2690 C.ar    1  UNL1       -0.0521
     14  C10       -3.0950   -0.3290    0.5110 C.ar    1  UNL1        0.0106
     15  N3         1.2840    0.2030    0.0210 N.am    1  UNL1       -0.5171
     16  O3         1.7730    1.4240   -0.3260 O.3     1  UNL1       -0.4550
     17  C11        2.7490    1.2350   -1.2740 C.3     1  UNL1        0.0554
     18  C12        3.8410    0.4050   -0.7280 C.ar    1  UNL1       -0.0233
     19  C13        3.9780    0.1020    0.6040 C.ar    1  UNL1       -0.0564
     20  C14        5.0060   -0.6830    1.1110 C.ar    1  UNL1       -0.0614
     21  C15        5.9450   -1.1930    0.2440 C.ar    1  UNL1       -0.0617
     22  C16        5.8400   -0.9100   -1.1020 C.ar    1  UNL1       -0.0614
     23  C17        4.8110   -0.1290   -1.5820 C.ar    1  UNL1       -0.0564
     24 H          -0.7692   -0.8456    1.5964 H       1  UNL1        0.0391
     25 H          -0.2758   -2.0745    0.4331 H       1  UNL1        0.0391
     26 H          -4.1088   -3.3050   -1.5471 H       1  UNL1        0.1921
     27 H          -6.3027    0.3799    0.1773 H       1  UNL1        0.0625
     28 H          -5.6745    2.3014    1.4994 H       1  UNL1        0.0618
     29 H          -3.3710    2.5474    2.2006 H       1  UNL1        0.0618
     30 H          -1.7478    0.8750    1.5679 H       1  UNL1        0.0624
     31 H           3.1422    2.1851   -1.5699 H       1  UNL1        0.0595
     32 H           2.3216    0.7356   -2.1183 H       1  UNL1        0.0595
     33 H           3.2796    0.4777    1.2644 H       1  UNL1        0.0621
     34 H           5.0645   -0.8806    2.1222 H       1  UNL1        0.0618
     35 H           6.7177   -1.7795    0.5961 H       1  UNL1        0.0618
     36 H           6.5412   -1.2881   -1.7581 H       1  UNL1        0.0618
     37 H           4.7551    0.0660   -2.5939 H       1  UNL1        0.0621
@<TRIPOS>UNITY_ATOM_ATTR
15 1
charge -1
@<TRIPOS>BOND
     1     1     2    2
     2     2     3    1
     3     2    15    1
     4     3     4    1
     5     4     5   ar
     6     4    14   ar
     7     5     6   ar
     8     6     7   ar
     9     7     8    2
    10     7     9   ar
    11     9    10   ar
    12     9    14   ar
    13    10    11   ar
    14    11    12   ar
    15    12    13   ar
    16    13    14   ar
    17    15    16    1
    18    16    17    1
    19    17    18    1
    20    18    19   ar
    21    18    23   ar
    22    19    20   ar
    23    20    21   ar
    24    21    22   ar
    25    22    23   ar
    26     3    24    1
    27     3    25    1
    28     6    26    1
    29    10    27    1
    30    11    28    1
    31    12    29    1
    32    13    30    1
    33    17    31    1
    34    17    32    1
    35    19    33    1
    36    20    34    1
    37    21    35    1
    38    22    36    1
    39    23    37    1
@<TRIPOS>MOLECULE
../data/bude_mols_rdkit_confs_charged/molecule_35.pdb
 37 39 0 0 0
SMALL
GASTEIGER

@<TRIPOS>ATOM
      1  O1        -1.3510   -0.0750    2.3100 O.2     1  UNL1       -0.3166
      2  C1        -0.4150   -0.0890    1.4280 C.2     1  UNL1        0.0711
      3  C2        -0.7100   -0.6190    0.0900 C.3     1  UNL1        0.0341
      4  C3        -2.1380   -1.0790   -0.0210 C.ar    1  UNL1        0.0749
      5  N1        -2.4980   -2.3720    0.0060 N.ar    1  UNL1       -0.1749
      6  N2        -3.7430   -2.8100   -0.0870 N.ar    1  UNL1       -0.2425
      7  C4        -4.7440   -1.9320   -0.2190 C.ar    1  UNL1        0.2725
      8  O2        -5.9160   -2.3550   -0.3060 O.2     1  UNL1       -0.2658
      9  C5        -4.4420   -0.5940   -0.2530 C.ar    1  UNL1        0.0496
     10  C6        -5.4430    0.3590   -0.3900 C.ar    1  UNL1       -0.0487
     11  C7        -5.1370    1.7020   -0.4250 C.ar    1  UNL1       -0.0610
     12  C8        -3.8090    2.1170   -0.3230 C.ar    1  UNL1       -0.0611
     13  C9        -2.7900    1.2010   -0.1870 C.ar    1  UNL1       -0.0521
     14  C10       -3.1310   -0.1320   -0.1560 C.ar    1  UNL1        0.0106
     15  N3         0.8070    0.4240    1.8780 N.am    1  UNL1       -0.5171
     16  O3         1.9840    0.5300    1.3560 O.3     1  UNL1       -0.4550
     17  C11        2.4290   -0.3460    0.4190 C.3     1  UNL1        0.0554
     18  C12        3.8350    0.1040    0.0770 C.ar    1  UNL1       -0.0233
     19  C13        4.0690    1.0270   -0.8980 C.ar    1  UNL1       -0.0564
     20  C14        5.3690    1.4020   -1.1690 C.ar    1  UNL1       -0.0614
     21  C15        6.4310    0.8600   -0.4710 C.ar    1  UNL1       -0.0617
     22  C16        6.2080   -0.0740    0.5180 C.ar    1  UNL1       -0.0614
     23  C17        4.9000   -0.4310    0.7680 C.ar    1  UNL1       -0.0564
     24 H          -0.0620   -1.4477   -0.1059 H       1  UNL1        0.0391
     25 H          -0.5544    0.1644   -0.6220 H       1  UNL1        0.0391
     26 H          -3.9317   -3.7758   -0.0593 H       1  UNL1        0.1921
     27 H          -6.4271    0.0578   -0.4664 H       1  UNL1        0.0625
     28 H          -5.8898    2.4005   -0.5266 H       1  UNL1        0.0618
     29 H          -3.5873    3.1245   -0.3499 H       1  UNL1        0.0618
     30 H          -1.8061    1.5031   -0.1111 H       1  UNL1        0.0624
     31 H           1.8046   -0.3135   -0.4493 H       1  UNL1        0.0595
     32 H           2.4118   -1.3536    0.7786 H       1  UNL1        0.0595
     33 H           3.2846    1.4399   -1.4265 H       1  UNL1        0.0621
     34 H           5.5514    2.1002   -1.9067 H       1  UNL1        0.0618
     35 H           7.3950    1.1555   -0.6909 H       1  UNL1        0.0618
     36 H           6.9888   -0.4893    1.0499 H       1  UNL1        0.0618
     37 H           4.7106   -1.1289    1.5043 H       1  UNL1        0.0621
@<TRIPOS>UNITY_ATOM_ATTR
15 1
charge -1
@<TRIPOS>BOND
     1     1     2    2
     2     2     3    1
     3     2    15    1
     4     3     4    1
     5     4     5   ar
     6     4    14   ar
     7     5     6   ar
     8     6     7   ar
     9     7     8    2
    10     7     9   ar
    11     9    10   ar
    12     9    14   ar
    13    10    11   ar
    14    11    12   ar
    15    12    13   ar
    16    13    14   ar
    17    15    16    1
    18    16    17    1
    19    17    18    1
    20    18    19   ar
    21    18    23   ar
    22    19    20   ar
    23    20    21   ar
    24    21    22   ar
    25    22    23   ar
    26     3    24    1
    27     3    25    1
    28     6    26    1
    29    10    27    1
    30    11    28    1
    31    12    29    1
    32    13    30    1
    33    17    31    1
    34    17    32    1
    35    19    33    1
    36    20    34    1
    37    21    35    1
    38    22    36    1
    39    23    37    1
@<TRIPOS>MOLECULE
../data/bude_mols_rdkit_confs_charged/molecule_35.pdb
 37 39 0 0 0
SMALL
GASTEIGER

@<TRIPOS>ATOM
      1  O1        -0.3600    1.5170    0.4210 O.2     1  UNL1       -0.3166
      2  C1        -0.0580    0.5900   -0.3460 C.2     1  UNL1        0.0711
      3  C2        -1.0740   -0.1980   -1.1000 C.3     1  UNL1        0.0341
      4  C3        -2.4520    0.2120   -0.8570 C.ar    1  UNL1        0.0749
      5  N1        -3.1070    0.9320   -1.7770 N.ar    1  UNL1       -0.1749
      6  N2        -4.3540    1.3420   -1.6400 N.ar    1  UNL1       -0.2425
      7  C4        -4.9950    1.0090   -0.5000 C.ar    1  UNL1        0.2725
      8  O2        -6.1830    1.3990   -0.3680 O.2     1  UNL1       -0.2658
      9  C5        -4.4120    0.2750    0.5010 C.ar    1  UNL1        0.0496
     10  C6        -5.0580   -0.0730    1.6740 C.ar    1  UNL1       -0.0487
     11  C7        -4.4410   -0.8130    2.6620 C.ar    1  UNL1       -0.0610
     12  C8        -3.1310   -1.2200    2.4700 C.ar    1  UNL1       -0.0611
     13  C9        -2.4920   -0.8730    1.3050 C.ar    1  UNL1       -0.0521
     14  C10       -3.0960   -0.1330    0.3070 C.ar    1  UNL1        0.0106
     15  N3         1.3080    0.1880   -0.5790 N.am    1  UNL1       -0.5171
     16  O3         1.6040   -1.1450   -0.4560 O.3     1  UNL1       -0.4550
     17  C11        2.7490   -1.3850   -1.2000 C.3     1  UNL1        0.0554
     18  C12        3.8430   -0.5540   -0.6500 C.ar    1  UNL1       -0.0233
     19  C13        5.0000   -0.4500   -1.4280 C.ar    1  UNL1       -0.0564
     20  C14        6.0340    0.3080   -0.9470 C.ar    1  UNL1       -0.0614
     21  C15        5.9260    0.9380    0.2570 C.ar    1  UNL1       -0.0617
     22  C16        4.7890    0.8460    1.0390 C.ar    1  UNL1       -0.0614
     23  C17        3.7500    0.0890    0.5650 C.ar    1  UNL1       -0.0564
     24 H          -0.9759   -1.2261   -0.8203 H       1  UNL1        0.0391
     25 H          -0.8829   -0.0300   -2.1393 H       1  UNL1        0.0391
     26 H          -4.7990    1.8699   -2.3418 H       1  UNL1        0.1921
     27 H          -6.0341    0.2311    1.8148 H       1  UNL1        0.0625
     28 H          -4.9462   -1.0586    3.5277 H       1  UNL1        0.0618
     29 H          -2.6432   -1.7749    3.1906 H       1  UNL1        0.0618
     30 H          -1.5159   -1.1791    1.1688 H       1  UNL1        0.0624
     31 H           2.5766   -1.1250   -2.2235 H       1  UNL1        0.0595
     32 H           3.0115   -2.4210   -1.1489 H       1  UNL1        0.0595
     33 H           5.0726   -0.9306   -2.3384 H       1  UNL1        0.0621
     34 H           6.9005    0.4029   -1.4995 H       1  UNL1        0.0618
     35 H           6.7200    1.5030    0.5967 H       1  UNL1        0.0618
     36 H           4.7254    1.3307    1.9479 H       1  UNL1        0.0618
     37 H           2.8876   -0.0006    1.1246 H       1  UNL1        0.0621
@<TRIPOS>UNITY_ATOM_ATTR
15 1
charge -1
@<TRIPOS>BOND
     1     1     2    2
     2     2     3    1
     3     2    15    1
     4     3     4    1
     5     4     5   ar
     6     4    14   ar
     7     5     6   ar
     8     6     7   ar
     9     7     8    2
    10     7     9   ar
    11     9    10   ar
    12     9    14   ar
    13    10    11   ar
    14    11    12   ar
    15    12    13   ar
    16    13    14   ar
    17    15    16    1
    18    16    17    1
    19    17    18    1
    20    18    19   ar
    21    18    23   ar
    22    19    20   ar
    23    20    21   ar
    24    21    22   ar
    25    22    23   ar
    26     3    24    1
    27     3    25    1
    28     6    26    1
    29    10    27    1
    30    11    28    1
    31    12    29    1
    32    13    30    1
    33    17    31    1
    34    17    32    1
    35    19    33    1
    36    20    34    1
    37    21    35    1
    38    22    36    1
    39    23    37    1
@<TRIPOS>MOLECULE
../data/bude_mols_rdkit_confs_charged/molecule_35.pdb
 37 39 0 0 0
SMALL
GASTEIGER

@<TRIPOS>ATOM
      1  O1        -0.1900    1.9250   -0.1690 O.2     1  UNL1       -0.3166
      2  C1        -0.2610    0.6830   -0.1850 C.2     1  UNL1        0.0711
      3  C2         0.9640   -0.1290   -0.1910 C.3     1  UNL1        0.0341
      4  C3         2.1400    0.7730   -0.1760 C.ar    1  UNL1        0.0749
      5  N1         2.0240    2.1200   -0.1590 N.ar    1  UNL1       -0.1749
      6  N2         3.0450    2.9420   -0.1450 N.ar    1  UNL1       -0.2425
      7  C4         4.3170    2.4500   -0.1470 C.ar    1  UNL1        0.2725
      8  O2         5.2920    3.2270   -0.1340 O.2     1  UNL1       -0.2658
      9  C5         4.5330    1.0890   -0.1640 C.ar    1  UNL1        0.0496
     10  C6         5.7880    0.5320   -0.1670 C.ar    1  UNL1       -0.0487
     11  C7         6.0060   -0.8290   -0.1840 C.ar    1  UNL1       -0.0610
     12  C8         4.9150   -1.6630   -0.1990 C.ar    1  UNL1       -0.0611
     13  C9         3.6550   -1.1180   -0.1960 C.ar    1  UNL1       -0.0521
     14  C10        3.4260    0.2530   -0.1790 C.ar    1  UNL1        0.0106
     15  N3        -1.5220    0.0500   -0.1970 N.am    1  UNL1       -0.5171
     16  O3        -1.7480   -1.2480   -0.0200 O.3     1  UNL1       -0.4550
     17  C11       -2.8360   -1.7010   -0.7150 C.3     1  UNL1        0.0554
     18  C12       -4.0860   -1.0120   -0.3120 C.ar    1  UNL1       -0.0233
     19  C13       -4.1520   -0.1690    0.7750 C.ar    1  UNL1       -0.0564
     20  C14       -5.3400    0.4760    1.1400 C.ar    1  UNL1       -0.0614
     21  C15       -6.4950    0.2850    0.4130 C.ar    1  UNL1       -0.0617
     22  C16       -6.4340   -0.5580   -0.6770 C.ar    1  UNL1       -0.0614
     23  C17       -5.2600   -1.1930   -1.0350 C.ar    1  UNL1       -0.0564
     24 H           0.9882   -0.7356   -1.0721 H       1  UNL1        0.0391
     25 H           0.9826   -0.7622    0.6714 H       1  UNL1        0.0391
     26 H           2.8936    3.9147   -0.1330 H       1  UNL1        0.1921
     27 H           6.6058    1.1613   -0.1560 H       1  UNL1        0.0625
     28 H           6.9645   -1.2114   -0.1854 H       1  UNL1        0.0618
     29 H           5.0409   -2.6872   -0.2124 H       1  UNL1        0.0618
     30 H           2.8423   -1.7539   -0.2068 H       1  UNL1        0.0624
     31 H          -2.9474   -2.7498   -0.5349 H       1  UNL1        0.0595
     32 H          -2.6699   -1.4990   -1.7525 H       1  UNL1        0.0595
     33 H          -3.3014   -0.0080    1.3367 H       1  UNL1        0.0621
     34 H          -5.3507    1.1005    1.9615 H       1  UNL1        0.0618
     35 H          -7.3749    0.7563    0.6750 H       1  UNL1        0.0618
     36 H          -7.2850   -0.7183   -1.2383 H       1  UNL1        0.0618
     37 H          -5.2544   -1.8159   -1.8578 H       1  UNL1        0.0621
@<TRIPOS>UNITY_ATOM_ATTR
15 1
charge -1
@<TRIPOS>BOND
     1     1     2    2
     2     2     3    1
     3     2    15    1
     4     3     4    1
     5     4     5   ar
     6     4    14   ar
     7     5     6   ar
     8     6     7   ar
     9     7     8    2
    10     7     9   ar
    11     9    10   ar
    12     9    14   ar
    13    10    11   ar
    14    11    12   ar
    15    12    13   ar
    16    13    14   ar
    17    15    16    1
    18    16    17    1
    19    17    18    1
    20    18    19   ar
    21    18    23   ar
    22    19    20   ar
    23    20    21   ar
    24    21    22   ar
    25    22    23   ar
    26     3    24    1
    27     3    25    1
    28     6    26    1
    29    10    27    1
    30    11    28    1
    31    12    29    1
    32    13    30    1
    33    17    31    1
    34    17    32    1
    35    19    33    1
    36    20    34    1
    37    21    35    1
    38    22    36    1
    39    23    37    1
@<TRIPOS>MOLECULE
../data/bude_mols_rdkit_confs_charged/molecule_35.pdb
 37 39 0 0 0
SMALL
GASTEIGER

@<TRIPOS>ATOM
      1  O1        -0.8410   -1.3000    0.1750 O.2     1  UNL1       -0.3166
      2  C1        -0.3510   -0.6210   -0.7630 C.2     1  UNL1        0.0711
      3  C2        -0.9220    0.7030   -1.1320 C.3     1  UNL1        0.0341
      4  C3        -2.0780    1.0640   -0.3030 C.ar    1  UNL1        0.0749
      5  N1        -2.0280    1.9680    0.6890 N.ar    1  UNL1       -0.1749
      6  N2        -3.1090    2.2650    1.4130 N.ar    1  UNL1       -0.2425
      7  C4        -4.3030    1.6910    1.2070 C.ar    1  UNL1        0.2725
      8  O2        -5.3260    1.9600    1.8790 O.2     1  UNL1       -0.2658
      9  C5        -4.4230    0.7550    0.2030 C.ar    1  UNL1        0.0496
     10  C6        -5.6270    0.1280   -0.0590 C.ar    1  UNL1       -0.0487
     11  C7        -5.6920   -0.8020   -1.0740 C.ar    1  UNL1       -0.0610
     12  C8        -4.5870   -1.1290   -1.8410 C.ar    1  UNL1       -0.0611
     13  C9        -3.3960   -0.4850   -1.5560 C.ar    1  UNL1       -0.0521
     14  C10       -3.2980    0.4580   -0.5370 C.ar    1  UNL1        0.0106
     15  N3         0.7650   -1.0830   -1.5110 N.am    1  UNL1       -0.5171
     16  O3         2.0150   -0.5860   -1.3920 O.3     1  UNL1       -0.4550
     17  C11        2.5980   -1.1780   -0.2880 C.3     1  UNL1        0.0554
     18  C12        3.9770   -0.6990   -0.0730 C.ar    1  UNL1       -0.0233
     19  C13        4.6190    0.1690   -0.9300 C.ar    1  UNL1       -0.0564
     20  C14        5.9180    0.5950   -0.6860 C.ar    1  UNL1       -0.0614
     21  C15        6.6160    0.1670    0.4210 C.ar    1  UNL1       -0.0617
     22  C16        5.9770   -0.7020    1.2800 C.ar    1  UNL1       -0.0614
     23  C17        4.6720   -1.1310    1.0370 C.ar    1  UNL1       -0.0564
     24 H          -1.2301    0.6710   -2.1562 H       1  UNL1        0.0391
     25 H          -0.1636    1.4411   -0.9738 H       1  UNL1        0.0391
     26 H          -3.0261    2.9349    2.1297 H       1  UNL1        0.1921
     27 H          -6.4660    0.3534    0.4981 H       1  UNL1        0.0625
     28 H          -6.5917   -1.2688   -1.2681 H       1  UNL1        0.0618
     29 H          -4.6493   -1.8277   -2.5979 H       1  UNL1        0.0618
     30 H          -2.5576   -0.7100   -2.1141 H       1  UNL1        0.0624
     31 H           2.6183   -2.2378   -0.4337 H       1  UNL1        0.0595
     32 H           2.0181   -0.9190    0.5731 H       1  UNL1        0.0595
     33 H           4.1245    0.5090   -1.7696 H       1  UNL1        0.0621
     34 H           6.3694    1.2456   -1.3478 H       1  UNL1        0.0618
     35 H           7.5812    0.4847    0.6011 H       1  UNL1        0.0618
     36 H           6.4736   -1.0415    2.1186 H       1  UNL1        0.0618
     37 H           4.2197   -1.7817    1.6981 H       1  UNL1        0.0621
@<TRIPOS>UNITY_ATOM_ATTR
15 1
charge -1
@<TRIPOS>BOND
     1     1     2    2
     2     2     3    1
     3     2    15    1
     4     3     4    1
     5     4     5   ar
     6     4    14   ar
     7     5     6   ar
     8     6     7   ar
     9     7     8    2
    10     7     9   ar
    11     9    10   ar
    12     9    14   ar
    13    10    11   ar
    14    11    12   ar
    15    12    13   ar
    16    13    14   ar
    17    15    16    1
    18    16    17    1
    19    17    18    1
    20    18    19   ar
    21    18    23   ar
    22    19    20   ar
    23    20    21   ar
    24    21    22   ar
    25    22    23   ar
    26     3    24    1
    27     3    25    1
    28     6    26    1
    29    10    27    1
    30    11    28    1
    31    12    29    1
    32    13    30    1
    33    17    31    1
    34    17    32    1
    35    19    33    1
    36    20    34    1
    37    21    35    1
    38    22    36    1
    39    23    37    1
@<TRIPOS>MOLECULE
../data/bude_mols_rdkit_confs_charged/molecule_35.pdb
 37 39 0 0 0
SMALL
GASTEIGER

@<TRIPOS>ATOM
      1  O1        -0.5410   -1.2760    1.6660 O.2     1  UNL1       -0.3166
      2  C1        -0.0250   -1.2260    0.5450 C.2     1  UNL1        0.0711
      3  C2        -0.8540   -1.1100   -0.6820 C.3     1  UNL1        0.0341
      4  C3        -2.2900   -1.0670   -0.4340 C.ar    1  UNL1        0.0749
      5  N1        -3.0480   -2.1530   -0.6690 N.ar    1  UNL1       -0.1749
      6  N2        -4.3490   -2.2150   -0.4810 N.ar    1  UNL1       -0.2425
      7  C4        -5.0000   -1.1440   -0.0250 C.ar    1  UNL1        0.2725
      8  O2        -6.2300   -1.1770    0.1600 O.2     1  UNL1       -0.2658
      9  C5        -4.2870   -0.0010    0.2350 C.ar    1  UNL1        0.0496
     10  C6        -4.9130    1.1520    0.7140 C.ar    1  UNL1       -0.0487
     11  C7        -4.2320    2.3030    0.9840 C.ar    1  UNL1       -0.0610
     12  C8        -2.8660    2.3310    0.7740 C.ar    1  UNL1       -0.0611
     13  C9        -2.2000    1.2230    0.3030 C.ar    1  UNL1       -0.0521
     14  C10       -2.9140    0.0750    0.0400 C.ar    1  UNL1        0.0106
     15  N3         1.4000   -1.2750    0.3310 N.am    1  UNL1       -0.5171
     16  O3         1.9210   -1.6770   -0.8490 O.3     1  UNL1       -0.4550
     17  C11        2.5660   -0.6390   -1.5120 C.3     1  UNL1        0.0554
     18  C12        3.6720   -0.1280   -0.6740 C.ar    1  UNL1       -0.0233
     19  C13        3.4030    0.8320    0.2700 C.ar    1  UNL1       -0.0564
     20  C14        4.3780    1.3580    1.0890 C.ar    1  UNL1       -0.0614
     21  C15        5.6800    0.8970    0.9500 C.ar    1  UNL1       -0.0617
     22  C16        5.9560   -0.0670    0.0030 C.ar    1  UNL1       -0.0614
     23  C17        4.9640   -0.5780   -0.8030 C.ar    1  UNL1       -0.0564
     24 H          -0.6470   -1.9533   -1.3072 H       1  UNL1        0.0391
     25 H          -0.5942   -0.1787   -1.1404 H       1  UNL1        0.0391
     26 H          -4.8386   -3.0466   -0.6757 H       1  UNL1        0.1921
     27 H          -5.9329    1.1325    0.8702 H       1  UNL1        0.0625
     28 H          -4.7270    3.1364    1.3381 H       1  UNL1        0.0618
     29 H          -2.3383    3.1952    0.9733 H       1  UNL1        0.0618
     30 H          -1.1800    1.2517    0.1490 H       1  UNL1        0.0624
     31 H           1.8688    0.1502   -1.7018 H       1  UNL1        0.0595
     32 H           2.9595   -0.9994   -2.4395 H       1  UNL1        0.0595
     33 H           2.4339    1.1724    0.3698 H       1  UNL1        0.0621
     34 H           4.1456    2.0787    1.7902 H       1  UNL1        0.0618
     35 H           6.4328    1.2713    1.5484 H       1  UNL1        0.0618
     36 H           6.9231   -0.4112   -0.1032 H       1  UNL1        0.0618
     37 H           5.1908   -1.2998   -1.5049 H       1  UNL1        0.0621
@<TRIPOS>UNITY_ATOM_ATTR
15 1
charge -1
@<TRIPOS>BOND
     1     1     2    2
     2     2     3    1
     3     2    15    1
     4     3     4    1
     5     4     5   ar
     6     4    14   ar
     7     5     6   ar
     8     6     7   ar
     9     7     8    2
    10     7     9   ar
    11     9    10   ar
    12     9    14   ar
    13    10    11   ar
    14    11    12   ar
    15    12    13   ar
    16    13    14   ar
    17    15    16    1
    18    16    17    1
    19    17    18    1
    20    18    19   ar
    21    18    23   ar
    22    19    20   ar
    23    20    21   ar
    24    21    22   ar
    25    22    23   ar
    26     3    24    1
    27     3    25    1
    28     6    26    1
    29    10    27    1
    30    11    28    1
    31    12    29    1
    32    13    30    1
    33    17    31    1
    34    17    32    1
    35    19    33    1
    36    20    34    1
    37    21    35    1
    38    22    36    1
    39    23    37    1
@<TRIPOS>MOLECULE
../data/bude_mols_rdkit_confs_charged/molecule_35.pdb
 37 39 0 0 0
SMALL
GASTEIGER

@<TRIPOS>ATOM
      1  O1        -0.1650    0.6470   -0.2970 O.2     1  UNL1       -0.3166
      2  C1         0.0100   -0.5040    0.1670 C.2     1  UNL1        0.0711
      3  C2        -1.0030   -1.0860    1.0890 C.3     1  UNL1        0.0341
      4  C3        -2.0750   -0.1170    1.2760 C.ar    1  UNL1        0.0749
      5  N1        -2.1420    0.6090    2.4110 N.ar    1  UNL1       -0.1749
      6  N2        -3.0730    1.5070    2.6610 N.ar    1  UNL1       -0.2425
      7  C4        -4.0420    1.7450    1.7450 C.ar    1  UNL1        0.2725
      8  O2        -4.9470    2.6060    1.9660 O.2     1  UNL1       -0.2658
      9  C5        -4.0690    1.0650    0.5590 C.ar    1  UNL1        0.0496
     10  C6        -5.0420    1.2760   -0.4030 C.ar    1  UNL1       -0.0487
     11  C7        -5.0060    0.5530   -1.5710 C.ar    1  UNL1       -0.0610
     12  C8        -4.0200   -0.3830   -1.8090 C.ar    1  UNL1       -0.0611
     13  C9        -3.0570   -0.5910   -0.8540 C.ar    1  UNL1       -0.0521
     14  C10       -3.0620    0.1200    0.3340 C.ar    1  UNL1        0.0106
     15  N3         1.1800   -1.2340   -0.2010 N.am    1  UNL1       -0.5171
     16  O3         1.9020   -1.9730    0.6480 O.3     1  UNL1       -0.4550
     17  C11        3.1380   -2.2270    0.0870 C.3     1  UNL1        0.0554
     18  C12        3.8590   -0.9710   -0.1770 C.ar    1  UNL1       -0.0233
     19  C13        3.5040    0.2480    0.3560 C.ar    1  UNL1       -0.0564
     20  C14        4.1830    1.4290    0.1000 C.ar    1  UNL1       -0.0614
     21  C15        5.2930    1.3890   -0.7460 C.ar    1  UNL1       -0.0617
     22  C16        5.6420    0.1710   -1.2740 C.ar    1  UNL1       -0.0614
     23  C17        4.9630   -0.9960   -1.0150 C.ar    1  UNL1       -0.0564
     24 H          -0.5476   -1.3058    2.0320 H       1  UNL1        0.0391
     25 H          -1.3969   -1.9903    0.6743 H       1  UNL1        0.0391
     26 H          -3.0644    2.0036    3.5110 H       1  UNL1        0.1921
     27 H          -5.7884    1.9708   -0.2442 H       1  UNL1        0.0625
     28 H          -5.7325    0.7135   -2.2862 H       1  UNL1        0.0618
     29 H          -4.0073   -0.9180   -2.6914 H       1  UNL1        0.0618
     30 H          -2.3164   -1.2893   -1.0241 H       1  UNL1        0.0624
     31 H           3.0037   -2.7549   -0.8340 H       1  UNL1        0.0595
     32 H           3.7120   -2.8150    0.7723 H       1  UNL1        0.0595
     33 H           2.6847    0.2844    0.9825 H       1  UNL1        0.0621
     34 H           3.8751    2.3176    0.5250 H       1  UNL1        0.0618
     35 H           5.8303    2.2422   -0.9659 H       1  UNL1        0.0618
     36 H           6.4606    0.1289   -1.9010 H       1  UNL1        0.0618
     37 H           5.2727   -1.8835   -1.4410 H       1  UNL1        0.0621
@<TRIPOS>UNITY_ATOM_ATTR
15 1
charge -1
@<TRIPOS>BOND
     1     1     2    2
     2     2     3    1
     3     2    15    1
     4     3     4    1
     5     4     5   ar
     6     4    14   ar
     7     5     6   ar
     8     6     7   ar
     9     7     8    2
    10     7     9   ar
    11     9    10   ar
    12     9    14   ar
    13    10    11   ar
    14    11    12   ar
    15    12    13   ar
    16    13    14   ar
    17    15    16    1
    18    16    17    1
    19    17    18    1
    20    18    19   ar
    21    18    23   ar
    22    19    20   ar
    23    20    21   ar
    24    21    22   ar
    25    22    23   ar
    26     3    24    1
    27     3    25    1
    28     6    26    1
    29    10    27    1
    30    11    28    1
    31    12    29    1
    32    13    30    1
    33    17    31    1
    34    17    32    1
    35    19    33    1
    36    20    34    1
    37    21    35    1
    38    22    36    1
    39    23    37    1
