@<TRIPOS>MOLECULE
../data/bude_mols_rdkit_confs_charged/molecule_9.pdb
 32 34 0 0 0
SMALL
GASTEIGER

@<TRIPOS>ATOM
      1  O1         3.8320    2.0440   -1.6010 O.co2   1  UNL1       -0.5446
      2  C1         4.1050    0.8250   -1.5280 C.2     1  UNL1        0.0717
      3  O2         5.1690    0.3000   -2.2830 O.co2   1  UNL1       -0.5446
      4  C2         3.3310   -0.0480   -0.6720 C.ar    1  UNL1       -0.0024
      5  C3         3.5830   -1.4040   -0.5480 C.ar    1  UNL1       -0.0529
      6  C4         2.8070   -2.1860    0.2870 C.ar    1  UNL1       -0.0609
      7  C5         1.7780   -1.6170    1.0010 C.ar    1  UNL1       -0.0582
      8  C6         1.4950   -0.2520    0.9010 C.ar    1  UNL1       -0.0409
      9  C7         0.4100    0.3290    1.6980 C.3     1  UNL1        0.0171
     10  C8        -0.9500   -0.0840    1.3210 C.ar    1  UNL1        0.0736
     11  N1        -1.5740   -1.1070    1.9950 N.ar    1  UNL1       -0.1750
     12  N2        -2.7730   -1.5460    1.6780 N.ar    1  UNL1       -0.2425
     13  C9        -3.4830   -1.0260    0.6650 C.ar    1  UNL1        0.2725
     14  O3        -4.6360   -1.4550    0.3650 O.2     1  UNL1       -0.2658
     15  C10       -2.9260    0.0050   -0.0600 C.ar    1  UNL1        0.0496
     16  C11       -3.6180    0.5810   -1.1010 C.ar    1  UNL1       -0.0487
     17  C12       -3.0670    1.6280   -1.8270 C.ar    1  UNL1       -0.0610
     18  C13       -1.8180    2.0960   -1.5030 C.ar    1  UNL1       -0.0611
     19  C14       -1.1360    1.5120   -0.4600 C.ar    1  UNL1       -0.0521
     20  C15       -1.6550    0.4630    0.2850 C.ar    1  UNL1        0.0106
     21  C16        2.2910    0.4780    0.0620 C.ar    1  UNL1       -0.0494
     22 H           4.3547   -1.8333   -1.0821 H       1  UNL1        0.0624
     23 H           2.9995   -3.1961    0.3747 H       1  UNL1        0.0618
     24 H           1.2044   -2.2090    1.6219 H       1  UNL1        0.0620
     25 H           0.4678    1.3934    1.6055 H       1  UNL1        0.0377
     26 H           0.5573   -0.0286    2.6957 H       1  UNL1        0.0377
     27 H          -3.1632   -2.2821    2.2026 H       1  UNL1        0.1921
     28 H          -4.5575    0.2304   -1.3447 H       1  UNL1        0.0625
     29 H          -3.5938    2.0524   -2.6064 H       1  UNL1        0.0618
     30 H          -1.3965    2.8743   -2.0337 H       1  UNL1        0.0618
     31 H          -0.1978    1.8699   -0.2217 H       1  UNL1        0.0624
     32 H           2.1001    1.4883   -0.0269 H       1  UNL1        0.0627
@<TRIPOS>UNITY_ATOM_ATTR
3 1
charge -1
@<TRIPOS>BOND
     1     1     2   ar
     2     2     3   ar
     3     2     4    1
     4     4     5   ar
     5     4    21   ar
     6     5     6   ar
     7     6     7   ar
     8     7     8   ar
     9     8     9    1
    10     8    21   ar
    11     9    10    1
    12    10    11   ar
    13    10    20   ar
    14    11    12   ar
    15    12    13   ar
    16    13    14    2
    17    13    15   ar
    18    15    16   ar
    19    15    20   ar
    20    16    17   ar
    21    17    18   ar
    22    18    19   ar
    23    19    20   ar
    24     5    22    1
    25     6    23    1
    26     7    24    1
    27     9    25    1
    28     9    26    1
    29    12    27    1
    30    16    28    1
    31    17    29    1
    32    18    30    1
    33    19    31    1
    34    21    32    1
@<TRIPOS>MOLECULE
../data/bude_mols_rdkit_confs_charged/molecule_9.pdb
 32 34 0 0 0
SMALL
GASTEIGER

@<TRIPOS>ATOM
      1  O1         3.4710   -3.1350   -0.4450 O.co2   1  UNL1       -0.5446
      2  C1         3.9640   -2.1190    0.0900 C.2     1  UNL1        0.0717
      3  O2         5.1370   -2.1790    0.8160 O.co2   1  UNL1       -0.5446
      4  C2         3.2900   -0.8440   -0.0530 C.ar    1  UNL1       -0.0024
      5  C3         3.8400    0.2930    0.5470 C.ar    1  UNL1       -0.0529
      6  C4         3.1600    1.4750    0.3810 C.ar    1  UNL1       -0.0609
      7  C5         1.9670    1.5430   -0.3560 C.ar    1  UNL1       -0.0582
      8  C6         1.4410    0.4310   -0.9350 C.ar    1  UNL1       -0.0409
      9  C7         0.1920    0.4570   -1.6960 C.3     1  UNL1        0.0171
     10  C8        -0.9380   -0.2640   -1.1160 C.ar    1  UNL1        0.0736
     11  N1        -1.2450   -1.5430   -1.4960 N.ar    1  UNL1       -0.1750
     12  N2        -2.2230   -2.2510   -0.9790 N.ar    1  UNL1       -0.2425
     13  C9        -3.0150   -1.7610   -0.0140 C.ar    1  UNL1        0.2725
     14  O3        -3.9300   -2.4930    0.4350 O.2     1  UNL1       -0.2658
     15  C10       -2.7510   -0.4780    0.4050 C.ar    1  UNL1        0.0496
     16  C11       -3.5590    0.0530    1.3860 C.ar    1  UNL1       -0.0487
     17  C12       -3.3910    1.3380    1.8740 C.ar    1  UNL1       -0.0610
     18  C13       -2.3740    2.0680    1.3290 C.ar    1  UNL1       -0.0611
     19  C14       -1.5360    1.5830    0.3440 C.ar    1  UNL1       -0.0521
     20  C15       -1.7120    0.2920   -0.1360 C.ar    1  UNL1        0.0106
     21  C16        2.1220   -0.7700   -0.7730 C.ar    1  UNL1       -0.0494
     22 H           4.7166    0.2463    1.0896 H       1  UNL1        0.0624
     23 H           3.5359    2.3354    0.8092 H       1  UNL1        0.0618
     24 H           1.4831    2.4486   -0.4596 H       1  UNL1        0.0620
     25 H           0.3887    0.0334   -2.6587 H       1  UNL1        0.0377
     26 H          -0.1068    1.4842   -1.7160 H       1  UNL1        0.0377
     27 H          -2.3788   -3.1655   -1.3086 H       1  UNL1        0.1921
     28 H          -4.3187   -0.5291    1.7721 H       1  UNL1        0.0625
     29 H          -4.0022    1.7235    2.6107 H       1  UNL1        0.0618
     30 H          -2.2239    3.0304    1.6701 H       1  UNL1        0.0618
     31 H          -0.7820    2.1778   -0.0338 H       1  UNL1        0.0624
     32 H           1.7411   -1.6269   -1.2040 H       1  UNL1        0.0627
@<TRIPOS>UNITY_ATOM_ATTR
3 1
charge -1
@<TRIPOS>BOND
     1     1     2   ar
     2     2     3   ar
     3     2     4    1
     4     4     5   ar
     5     4    21   ar
     6     5     6   ar
     7     6     7   ar
     8     7     8   ar
     9     8     9    1
    10     8    21   ar
    11     9    10    1
    12    10    11   ar
    13    10    20   ar
    14    11    12   ar
    15    12    13   ar
    16    13    14    2
    17    13    15   ar
    18    15    16   ar
    19    15    20   ar
    20    16    17   ar
    21    17    18   ar
    22    18    19   ar
    23    19    20   ar
    24     5    22    1
    25     6    23    1
    26     7    24    1
    27     9    25    1
    28     9    26    1
    29    12    27    1
    30    16    28    1
    31    17    29    1
    32    18    30    1
    33    19    31    1
    34    21    32    1
@<TRIPOS>MOLECULE
../data/bude_mols_rdkit_confs_charged/molecule_9.pdb
 32 34 0 0 0
SMALL
GASTEIGER

@<TRIPOS>ATOM
      1  O1         5.0480    0.8440    2.1890 O.co2   1  UNL1       -0.5446
      2  C1         3.9780    1.2510    1.6880 C.2     1  UNL1        0.0717
      3  O2         3.4050    2.4210    2.1460 O.co2   1  UNL1       -0.5446
      4  C2         3.3110    0.5150    0.6210 C.ar    1  UNL1       -0.0024
      5  C3         3.8310   -0.6610    0.1230 C.ar    1  UNL1       -0.0529
      6  C4         3.2080   -1.3620   -0.8850 C.ar    1  UNL1       -0.0609
      7  C5         2.0290   -0.8790   -1.4180 C.ar    1  UNL1       -0.0582
      8  C6         1.4670    0.3120   -0.9410 C.ar    1  UNL1       -0.0409
      9  C7         0.2190    0.7620   -1.5910 C.3     1  UNL1        0.0171
     10  C8        -0.9790   -0.0010   -1.2620 C.ar    1  UNL1        0.0736
     11  N1        -1.3770   -0.9800   -2.1200 N.ar    1  UNL1       -0.1750
     12  N2        -2.4160   -1.7390   -1.8950 N.ar    1  UNL1       -0.2425
     13  C9        -3.1850   -1.6190   -0.7940 C.ar    1  UNL1        0.2725
     14  O3        -4.1890   -2.3860   -0.6220 O.2     1  UNL1       -0.2658
     15  C10       -2.8480   -0.6510    0.1210 C.ar    1  UNL1        0.0496
     16  C11       -3.6220   -0.4970    1.2540 C.ar    1  UNL1       -0.0487
     17  C12       -3.2810    0.4850    2.1580 C.ar    1  UNL1       -0.0610
     18  C13       -2.1910    1.2700    1.9040 C.ar    1  UNL1       -0.0611
     19  C14       -1.4010    1.1340    0.7790 C.ar    1  UNL1       -0.0521
     20  C15       -1.7300    0.1560   -0.1340 C.ar    1  UNL1        0.0106
     21  C16        2.1190    0.9740    0.0610 C.ar    1  UNL1       -0.0494
     22 H           4.7122   -1.0261    0.5170 H       1  UNL1        0.0624
     23 H           3.6182   -2.2403   -1.2390 H       1  UNL1        0.0618
     24 H           1.5581   -1.4000   -2.1742 H       1  UNL1        0.0620
     25 H           0.3623    0.7075   -2.6500 H       1  UNL1        0.0377
     26 H           0.0421    1.7521   -1.2260 H       1  UNL1        0.0377
     27 H          -2.6477   -2.4287   -2.5582 H       1  UNL1        0.1921
     28 H          -4.4391   -1.1050    1.4202 H       1  UNL1        0.0625
     29 H          -3.8399    0.6259    3.0140 H       1  UNL1        0.0618
     30 H          -1.9455    2.0024    2.5884 H       1  UNL1        0.0618
     31 H          -0.5861    1.7486    0.6265 H       1  UNL1        0.0624
     32 H           1.7116    1.8520    0.4190 H       1  UNL1        0.0627
@<TRIPOS>UNITY_ATOM_ATTR
3 1
charge -1
@<TRIPOS>BOND
     1     1     2   ar
     2     2     3   ar
     3     2     4    1
     4     4     5   ar
     5     4    21   ar
     6     5     6   ar
     7     6     7   ar
     8     7     8   ar
     9     8     9    1
    10     8    21   ar
    11     9    10    1
    12    10    11   ar
    13    10    20   ar
    14    11    12   ar
    15    12    13   ar
    16    13    14    2
    17    13    15   ar
    18    15    16   ar
    19    15    20   ar
    20    16    17   ar
    21    17    18   ar
    22    18    19   ar
    23    19    20   ar
    24     5    22    1
    25     6    23    1
    26     7    24    1
    27     9    25    1
    28     9    26    1
    29    12    27    1
    30    16    28    1
    31    17    29    1
    32    18    30    1
    33    19    31    1
    34    21    32    1
@<TRIPOS>MOLECULE
../data/bude_mols_rdkit_confs_charged/molecule_9.pdb
 32 34 0 0 0
SMALL
GASTEIGER

@<TRIPOS>ATOM
      1  O1         5.0630    0.5230    2.4940 O.co2   1  UNL1       -0.5446
      2  C1         4.1080    1.0710    1.8900 C.2     1  UNL1        0.0717
      3  O2         3.7870    2.3980    2.1270 O.co2   1  UNL1       -0.5446
      4  C2         3.3480    0.2820    0.9360 C.ar    1  UNL1       -0.0024
      5  C3         3.6680   -1.0490    0.7030 C.ar    1  UNL1       -0.0529
      6  C4         2.9750   -1.8110   -0.1820 C.ar    1  UNL1       -0.0609
      7  C5         1.9100   -1.2270   -0.8700 C.ar    1  UNL1       -0.0582
      8  C6         1.5500    0.0740   -0.6820 C.ar    1  UNL1       -0.0409
      9  C7         0.4250    0.6950   -1.3910 C.3     1  UNL1        0.0171
     10  C8        -0.7680    0.9720   -0.5720 C.ar    1  UNL1        0.0736
     11  N1        -0.8990    2.2380   -0.0650 N.ar    1  UNL1       -0.1750
     12  N2        -1.8890    2.6100    0.7120 N.ar    1  UNL1       -0.2425
     13  C9        -2.8480    1.7330    1.0510 C.ar    1  UNL1        0.2725
     14  O3        -3.8170    2.0640    1.8010 O.2     1  UNL1       -0.2658
     15  C10       -2.8190    0.4210    0.5950 C.ar    1  UNL1        0.0496
     16  C11       -3.8030   -0.4790    0.9290 C.ar    1  UNL1       -0.0487
     17  C12       -3.7260   -1.7570    0.4350 C.ar    1  UNL1       -0.0610
     18  C13       -2.6780   -2.1110   -0.3770 C.ar    1  UNL1       -0.0611
     19  C14       -1.6940   -1.2100   -0.7100 C.ar    1  UNL1       -0.0521
     20  C15       -1.7440    0.0860   -0.2260 C.ar    1  UNL1        0.0106
     21  C16        2.2840    0.8080    0.2270 C.ar    1  UNL1       -0.0494
     22 H           4.4561   -1.4718    1.2179 H       1  UNL1        0.0624
     23 H           3.2296   -2.7982   -0.3421 H       1  UNL1        0.0618
     24 H           1.3774   -1.7995   -1.5435 H       1  UNL1        0.0620
     25 H           0.1342    0.0397   -2.1853 H       1  UNL1        0.0377
     26 H           0.7791    1.6480   -1.7245 H       1  UNL1        0.0377
     27 H          -1.9288    3.5347    1.0474 H       1  UNL1        0.1921
     28 H          -4.5857   -0.1985    1.5404 H       1  UNL1        0.0625
     29 H          -4.4534   -2.4492    0.6733 H       1  UNL1        0.0618
     30 H          -2.6272   -3.0736   -0.7455 H       1  UNL1        0.0618
     31 H          -0.9160   -1.5008   -1.3225 H       1  UNL1        0.0624
     32 H           2.0270    1.7949    0.3849 H       1  UNL1        0.0627
@<TRIPOS>UNITY_ATOM_ATTR
3 1
charge -1
@<TRIPOS>BOND
     1     1     2   ar
     2     2     3   ar
     3     2     4    1
     4     4     5   ar
     5     4    21   ar
     6     5     6   ar
     7     6     7   ar
     8     7     8   ar
     9     8     9    1
    10     8    21   ar
    11     9    10    1
    12    10    11   ar
    13    10    20   ar
    14    11    12   ar
    15    12    13   ar
    16    13    14    2
    17    13    15   ar
    18    15    16   ar
    19    15    20   ar
    20    16    17   ar
    21    17    18   ar
    22    18    19   ar
    23    19    20   ar
    24     5    22    1
    25     6    23    1
    26     7    24    1
    27     9    25    1
    28     9    26    1
    29    12    27    1
    30    16    28    1
    31    17    29    1
    32    18    30    1
    33    19    31    1
    34    21    32    1
@<TRIPOS>MOLECULE
../data/bude_mols_rdkit_confs_charged/molecule_9.pdb
 32 34 0 0 0
SMALL
GASTEIGER

@<TRIPOS>ATOM
      1  O1         5.2040    0.6280    1.9950 O.co2   1  UNL1       -0.5446
      2  C1         4.1940   -0.0960    1.8210 C.2     1  UNL1        0.0717
      3  O2         3.8900   -1.0130    2.8180 O.co2   1  UNL1       -0.5446
      4  C2         3.3780    0.0370    0.6040 C.ar    1  UNL1       -0.0024
      5  C3         3.7520    0.9720   -0.3310 C.ar    1  UNL1       -0.0529
      6  C4         2.9940    1.1030   -1.4740 C.ar    1  UNL1       -0.0609
      7  C5         1.8680    0.2920   -1.6650 C.ar    1  UNL1       -0.0582
      8  C6         1.4780   -0.6390   -0.7530 C.ar    1  UNL1       -0.0409
      9  C7         0.2990   -1.5090   -0.8950 C.3     1  UNL1        0.0171
     10  C8        -0.8470   -1.1720   -0.0620 C.ar    1  UNL1        0.0736
     11  N1        -0.9810   -1.8550    1.1160 N.ar    1  UNL1       -0.1750
     12  N2        -1.9560   -1.6090    1.9720 N.ar    1  UNL1       -0.2425
     13  C9        -2.8810   -0.6690    1.7380 C.ar    1  UNL1        0.2725
     14  O3        -3.8020   -0.4390    2.5520 O.2     1  UNL1       -0.2658
     15  C10       -2.8200    0.0580    0.5830 C.ar    1  UNL1        0.0496
     16  C11       -3.7440    1.0280    0.2780 C.ar    1  UNL1       -0.0487
     17  C12       -3.6910    1.7570   -0.8970 C.ar    1  UNL1       -0.0610
     18  C13       -2.6530    1.4630   -1.7650 C.ar    1  UNL1       -0.0611
     19  C14       -1.7070    0.4870   -1.4790 C.ar    1  UNL1       -0.0521
     20  C15       -1.7810   -0.2140   -0.3150 C.ar    1  UNL1        0.0106
     21  C16        2.2650   -0.7520    0.3960 C.ar    1  UNL1       -0.0494
     22 H           4.5837    1.5640   -0.1801 H       1  UNL1        0.0624
     23 H           3.2559    1.7989   -2.1897 H       1  UNL1        0.0618
     24 H           1.3144    0.4048   -2.5286 H       1  UNL1        0.0620
     25 H           0.5977   -2.5074   -0.6524 H       1  UNL1        0.0377
     26 H          -0.0317   -1.3841   -1.9049 H       1  UNL1        0.0377
     27 H          -2.0043   -2.1310    2.8053 H       1  UNL1        0.1921
     28 H          -4.5044    1.2197    0.9489 H       1  UNL1        0.0625
     29 H          -4.3904    2.4837   -1.1155 H       1  UNL1        0.0618
     30 H          -2.5800    1.9853   -2.6521 H       1  UNL1        0.0618
     31 H          -0.9472    0.2933   -2.1500 H       1  UNL1        0.0624
     32 H           2.0055   -1.4481    1.1124 H       1  UNL1        0.0627
@<TRIPOS>UNITY_ATOM_ATTR
3 1
charge -1
@<TRIPOS>BOND
     1     1     2   ar
     2     2     3   ar
     3     2     4    1
     4     4     5   ar
     5     4    21   ar
     6     5     6   ar
     7     6     7   ar
     8     7     8   ar
     9     8     9    1
    10     8    21   ar
    11     9    10    1
    12    10    11   ar
    13    10    20   ar
    14    11    12   ar
    15    12    13   ar
    16    13    14    2
    17    13    15   ar
    18    15    16   ar
    19    15    20   ar
    20    16    17   ar
    21    17    18   ar
    22    18    19   ar
    23    19    20   ar
    24     5    22    1
    25     6    23    1
    26     7    24    1
    27     9    25    1
    28     9    26    1
    29    12    27    1
    30    16    28    1
    31    17    29    1
    32    18    30    1
    33    19    31    1
    34    21    32    1
@<TRIPOS>MOLECULE
../data/bude_mols_rdkit_confs_charged/molecule_9.pdb
 32 34 0 0 0
SMALL
GASTEIGER

@<TRIPOS>ATOM
      1  O1        -5.9070    0.4640    0.2710 O.co2   1  UNL1       -0.5446
      2  C1        -4.9080   -0.2330    0.5500 C.2     1  UNL1        0.0717
      3  O2        -4.9840   -1.1410    1.5870 O.co2   1  UNL1       -0.5446
      4  C2        -3.6710   -0.0940   -0.2090 C.ar    1  UNL1       -0.0024
      5  C3        -3.6190    0.8120   -1.2570 C.ar    1  UNL1       -0.0529
      6  C4        -2.4540    0.9170   -1.9660 C.ar    1  UNL1       -0.0609
      7  C5        -1.3390    0.1290   -1.6420 C.ar    1  UNL1       -0.0582
      8  C6        -1.3520   -0.7680   -0.6240 C.ar    1  UNL1       -0.0409
      9  C7        -0.2490   -1.6600   -0.2090 C.3     1  UNL1        0.0171
     10  C8         0.7270   -1.0530    0.7220 C.ar    1  UNL1        0.0736
     11  N1         0.5500   -1.1210    2.0600 N.ar    1  UNL1       -0.1750
     12  N2         1.3780   -0.5270    2.8820 N.ar    1  UNL1       -0.2425
     13  C9         2.4450    0.1820    2.4760 C.ar    1  UNL1        0.2725
     14  O3         3.2250    0.7450    3.2820 O.2     1  UNL1       -0.2658
     15  C10        2.6930    0.2960    1.1200 C.ar    1  UNL1        0.0496
     16  C11        3.7870    0.9920    0.6430 C.ar    1  UNL1       -0.0487
     17  C12        4.0450    1.0800   -0.7090 C.ar    1  UNL1       -0.0610
     18  C13        3.1960    0.4620   -1.5830 C.ar    1  UNL1       -0.0611
     19  C14        2.1080   -0.2270   -1.0800 C.ar    1  UNL1       -0.0521
     20  C15        1.8030   -0.3440    0.2480 C.ar    1  UNL1        0.0106
     21  C16       -2.5650   -0.8520    0.0860 C.ar    1  UNL1       -0.0494
     22 H          -4.4382    1.3923   -1.4961 H       1  UNL1        0.0624
     23 H          -2.3942    1.5851   -2.7502 H       1  UNL1        0.0618
     24 H          -0.4767    0.2357   -2.1989 H       1  UNL1        0.0620
     25 H           0.2776   -1.9683   -1.0879 H       1  UNL1        0.0377
     26 H          -0.7029   -2.4719    0.3199 H       1  UNL1        0.0377
     27 H           1.2100   -0.6038    3.8490 H       1  UNL1        0.1921
     28 H           4.4231    1.4548    1.3110 H       1  UNL1        0.0625
     29 H           4.8647    1.6033   -1.0543 H       1  UNL1        0.0618
     30 H           3.3638    0.5086   -2.6002 H       1  UNL1        0.0618
     31 H           1.4794   -0.6871   -1.7569 H       1  UNL1        0.0624
     32 H          -2.6260   -1.5195    0.8707 H       1  UNL1        0.0627
@<TRIPOS>UNITY_ATOM_ATTR
3 1
charge -1
@<TRIPOS>BOND
     1     1     2   ar
     2     2     3   ar
     3     2     4    1
     4     4     5   ar
     5     4    21   ar
     6     5     6   ar
     7     6     7   ar
     8     7     8   ar
     9     8     9    1
    10     8    21   ar
    11     9    10    1
    12    10    11   ar
    13    10    20   ar
    14    11    12   ar
    15    12    13   ar
    16    13    14    2
    17    13    15   ar
    18    15    16   ar
    19    15    20   ar
    20    16    17   ar
    21    17    18   ar
    22    18    19   ar
    23    19    20   ar
    24     5    22    1
    25     6    23    1
    26     7    24    1
    27     9    25    1
    28     9    26    1
    29    12    27    1
    30    16    28    1
    31    17    29    1
    32    18    30    1
    33    19    31    1
    34    21    32    1
@<TRIPOS>MOLECULE
../data/bude_mols_rdkit_confs_charged/molecule_9.pdb
 32 34 0 0 0
SMALL
GASTEIGER

@<TRIPOS>ATOM
      1  O1         5.8820   -0.7620   -0.8740 O.co2   1  UNL1       -0.5446
      2  C1         4.7120   -1.1310   -0.6130 C.2     1  UNL1        0.0717
      3  O2         4.3210   -2.4320   -0.8570 O.co2   1  UNL1       -0.5446
      4  C2         3.8020   -0.1430   -0.0500 C.ar    1  UNL1       -0.0024
      5  C3         4.1790    1.1580    0.1990 C.ar    1  UNL1       -0.0529
      6  C4         3.3080    2.0760    0.7310 C.ar    1  UNL1       -0.0609
      7  C5         2.0060    1.7050    1.0330 C.ar    1  UNL1       -0.0582
      8  C6         1.5910    0.4060    0.7950 C.ar    1  UNL1       -0.0409
      9  C7         0.2220   -0.0680    1.0890 C.3     1  UNL1        0.0171
     10  C8        -0.6980    0.1030   -0.0520 C.ar    1  UNL1        0.0736
     11  N1        -0.2790    0.6400   -1.2050 N.ar    1  UNL1       -0.1750
     12  N2        -1.1080    0.7990   -2.2440 N.ar    1  UNL1       -0.2425
     13  C9        -2.4060    0.4070   -2.1290 C.ar    1  UNL1        0.2725
     14  O3        -3.1810    0.5570   -3.1060 O.2     1  UNL1       -0.2658
     15  C10       -2.8930   -0.1520   -0.9660 C.ar    1  UNL1        0.0496
     16  C11       -4.1990   -0.5570   -0.8230 C.ar    1  UNL1       -0.0487
     17  C12       -4.6700   -1.1200    0.3620 C.ar    1  UNL1       -0.0610
     18  C13       -3.7960   -1.2710    1.4120 C.ar    1  UNL1       -0.0611
     19  C14       -2.4860   -0.8630    1.2640 C.ar    1  UNL1       -0.0521
     20  C15       -2.0030   -0.2990    0.0850 C.ar    1  UNL1        0.0106
     21  C16        2.5020   -0.4850    0.2600 C.ar    1  UNL1       -0.0494
     22 H           5.1438    1.4511   -0.0206 H       1  UNL1        0.0624
     23 H           3.6222    3.0432    0.9065 H       1  UNL1        0.0618
     24 H           1.3500    2.3939    1.4331 H       1  UNL1        0.0620
     25 H          -0.1598    0.4843    1.9221 H       1  UNL1        0.0377
     26 H           0.2815   -1.1150    1.3016 H       1  UNL1        0.0377
     27 H          -0.7815    1.1959   -3.0837 H       1  UNL1        0.1921
     28 H          -4.8494   -0.4408   -1.6158 H       1  UNL1        0.0625
     29 H          -5.6544   -1.4172    0.4491 H       1  UNL1        0.0618
     30 H          -4.1160   -1.6850    2.3015 H       1  UNL1        0.0618
     31 H          -1.8380   -0.9804    2.0586 H       1  UNL1        0.0624
     32 H           2.1945   -1.4542    0.0837 H       1  UNL1        0.0627
@<TRIPOS>UNITY_ATOM_ATTR
3 1
charge -1
@<TRIPOS>BOND
     1     1     2   ar
     2     2     3   ar
     3     2     4    1
     4     4     5   ar
     5     4    21   ar
     6     5     6   ar
     7     6     7   ar
     8     7     8   ar
     9     8     9    1
    10     8    21   ar
    11     9    10    1
    12    10    11   ar
    13    10    20   ar
    14    11    12   ar
    15    12    13   ar
    16    13    14    2
    17    13    15   ar
    18    15    16   ar
    19    15    20   ar
    20    16    17   ar
    21    17    18   ar
    22    18    19   ar
    23    19    20   ar
    24     5    22    1
    25     6    23    1
    26     7    24    1
    27     9    25    1
    28     9    26    1
    29    12    27    1
    30    16    28    1
    31    17    29    1
    32    18    30    1
    33    19    31    1
    34    21    32    1
@<TRIPOS>MOLECULE
../data/bude_mols_rdkit_confs_charged/molecule_9.pdb
 32 34 0 0 0
SMALL
GASTEIGER

@<TRIPOS>ATOM
      1  O1         4.4410    2.5070   -1.5320 O.co2   1  UNL1       -0.5446
      2  C1         3.3860    2.2950   -0.9020 C.2     1  UNL1        0.0717
      3  O2         2.5140    3.3160   -0.6560 O.co2   1  UNL1       -0.5446
      4  C2         3.0970    0.9520   -0.4360 C.ar    1  UNL1       -0.0024
      5  C3         3.9570   -0.1100   -0.6710 C.ar    1  UNL1       -0.0529
      6  C4         3.6450   -1.3740   -0.2170 C.ar    1  UNL1       -0.0609
      7  C5         2.4740   -1.5900    0.4750 C.ar    1  UNL1       -0.0582
      8  C6         1.5620   -0.5410    0.7430 C.ar    1  UNL1       -0.0409
      9  C7         0.3190   -0.8280    1.4920 C.3     1  UNL1        0.0171
     10  C8        -0.8610   -1.0940    0.6780 C.ar    1  UNL1        0.0736
     11  N1        -1.1520   -2.3540    0.2420 N.ar    1  UNL1       -0.1750
     12  N2        -2.1640   -2.6190   -0.5560 N.ar    1  UNL1       -0.2425
     13  C9        -3.0200   -1.6830   -1.0280 C.ar    1  UNL1        0.2725
     14  O3        -3.9720   -1.9900   -1.7930 O.2     1  UNL1       -0.2658
     15  C10       -2.7850   -0.3880   -0.6250 C.ar    1  UNL1        0.0496
     16  C11       -3.6450    0.5970   -1.0600 C.ar    1  UNL1       -0.0487
     17  C12       -3.4680    1.9140   -0.6620 C.ar    1  UNL1       -0.0610
     18  C13       -2.4160    2.1770    0.1700 C.ar    1  UNL1       -0.0611
     19  C14       -1.5640    1.1810    0.5970 C.ar    1  UNL1       -0.0521
     20  C15       -1.7090   -0.1140    0.2230 C.ar    1  UNL1        0.0106
     21  C16        1.9230    0.6680    0.2740 C.ar    1  UNL1       -0.0494
     22 H           4.8359    0.0466   -1.1888 H       1  UNL1        0.0624
     23 H           4.2900   -2.1595   -0.3960 H       1  UNL1        0.0618
     24 H           2.2555   -2.5423    0.8071 H       1  UNL1        0.0620
     25 H           0.1066    0.0170    2.1131 H       1  UNL1        0.0377
     26 H           0.5076   -1.7295    2.0367 H       1  UNL1        0.0377
     27 H          -2.3072   -3.5548   -0.8261 H       1  UNL1        0.1921
     28 H          -4.4273    0.3528   -1.6872 H       1  UNL1        0.0625
     29 H          -4.1030    2.6627   -0.9803 H       1  UNL1        0.0618
     30 H          -2.2554    3.1460    0.4866 H       1  UNL1        0.0618
     31 H          -0.7851    1.4310    1.2262 H       1  UNL1        0.0624
     32 H           1.2789    1.4542    0.4530 H       1  UNL1        0.0627
@<TRIPOS>UNITY_ATOM_ATTR
3 1
charge -1
@<TRIPOS>BOND
     1     1     2   ar
     2     2     3   ar
     3     2     4    1
     4     4     5   ar
     5     4    21   ar
     6     5     6   ar
     7     6     7   ar
     8     7     8   ar
     9     8     9    1
    10     8    21   ar
    11     9    10    1
    12    10    11   ar
    13    10    20   ar
    14    11    12   ar
    15    12    13   ar
    16    13    14    2
    17    13    15   ar
    18    15    16   ar
    19    15    20   ar
    20    16    17   ar
    21    17    18   ar
    22    18    19   ar
    23    19    20   ar
    24     5    22    1
    25     6    23    1
    26     7    24    1
    27     9    25    1
    28     9    26    1
    29    12    27    1
    30    16    28    1
    31    17    29    1
    32    18    30    1
    33    19    31    1
    34    21    32    1
@<TRIPOS>MOLECULE
../data/bude_mols_rdkit_confs_charged/molecule_9.pdb
 32 34 0 0 0
SMALL
GASTEIGER

@<TRIPOS>ATOM
      1  O1         4.1620    2.8130    0.5230 O.co2   1  UNL1       -0.5446
      2  C1         4.4150    1.7170   -0.0850 C.2     1  UNL1        0.0717
      3  O2         5.5550    1.6010   -0.8700 O.co2   1  UNL1       -0.5446
      4  C2         3.5120    0.5980    0.0440 C.ar    1  UNL1       -0.0024
      5  C3         3.7680   -0.5920   -0.5940 C.ar    1  UNL1       -0.0529
      6  C4         2.9120   -1.6440   -0.4570 C.ar    1  UNL1       -0.0609
      7  C5         1.7580   -1.5140    0.3410 C.ar    1  UNL1       -0.0582
      8  C6         1.4700   -0.3540    0.9860 C.ar    1  UNL1       -0.0409
      9  C7         0.2760   -0.1550    1.8340 C.3     1  UNL1        0.0171
     10  C8        -0.8640    0.4770    1.1380 C.ar    1  UNL1        0.0736
     11  N1        -0.9450    1.8440    1.1770 N.ar    1  UNL1       -0.1750
     12  N2        -1.8750    2.5330    0.5480 N.ar    1  UNL1       -0.2425
     13  C9        -2.8030    1.9230   -0.1720 C.ar    1  UNL1        0.2725
     14  O3        -3.6990    2.5920   -0.7790 O.2     1  UNL1       -0.2658
     15  C10       -2.7950    0.5440   -0.2640 C.ar    1  UNL1        0.0496
     16  C11       -3.7790   -0.0770   -0.9970 C.ar    1  UNL1       -0.0487
     17  C12       -3.7710   -1.4400   -1.0570 C.ar    1  UNL1       -0.0610
     18  C13       -2.7920   -2.1520   -0.3900 C.ar    1  UNL1       -0.0611
     19  C14       -1.8150   -1.5120    0.3390 C.ar    1  UNL1       -0.0521
     20  C15       -1.8110   -0.1520    0.4040 C.ar    1  UNL1        0.0106
     21  C16        2.3890    0.7070    0.8120 C.ar    1  UNL1       -0.0494
     22 H           4.6122   -0.6896   -1.1795 H       1  UNL1        0.0624
     23 H           3.1092   -2.5356   -0.9377 H       1  UNL1        0.0618
     24 H           1.1178   -2.3176    0.4374 H       1  UNL1        0.0620
     25 H           0.5512    0.4670    2.6600 H       1  UNL1        0.0377
     26 H          -0.0506   -1.1277    2.1375 H       1  UNL1        0.0377
     27 H          -1.8798    3.5152    0.6144 H       1  UNL1        0.1921
     28 H          -4.5024    0.4719   -1.4874 H       1  UNL1        0.0625
     29 H          -4.4942   -1.9381   -1.5991 H       1  UNL1        0.0618
     30 H          -2.7934   -3.1828   -0.4393 H       1  UNL1        0.0618
     31 H          -1.0917   -2.0586    0.8321 H       1  UNL1        0.0624
     32 H           2.2020    1.6039    1.2871 H       1  UNL1        0.0627
@<TRIPOS>UNITY_ATOM_ATTR
3 1
charge -1
@<TRIPOS>BOND
     1     1     2   ar
     2     2     3   ar
     3     2     4    1
     4     4     5   ar
     5     4    21   ar
     6     5     6   ar
     7     6     7   ar
     8     7     8   ar
     9     8     9    1
    10     8    21   ar
    11     9    10    1
    12    10    11   ar
    13    10    20   ar
    14    11    12   ar
    15    12    13   ar
    16    13    14    2
    17    13    15   ar
    18    15    16   ar
    19    15    20   ar
    20    16    17   ar
    21    17    18   ar
    22    18    19   ar
    23    19    20   ar
    24     5    22    1
    25     6    23    1
    26     7    24    1
    27     9    25    1
    28     9    26    1
    29    12    27    1
    30    16    28    1
    31    17    29    1
    32    18    30    1
    33    19    31    1
    34    21    32    1
@<TRIPOS>MOLECULE
../data/bude_mols_rdkit_confs_charged/molecule_9.pdb
 32 34 0 0 0
SMALL
GASTEIGER

@<TRIPOS>ATOM
      1  O1        -4.7000    1.9770   -2.0910 O.co2   1  UNL1       -0.5446
      2  C1        -3.7810    1.1180   -2.1220 C.2     1  UNL1        0.0717
      3  O2        -3.3220    0.5620   -3.3080 O.co2   1  UNL1       -0.5446
      4  C2        -3.1810    0.6950   -0.8740 C.ar    1  UNL1       -0.0024
      5  C3        -3.6000    1.2160    0.3330 C.ar    1  UNL1       -0.0529
      6  C4        -3.0140    0.7980    1.5130 C.ar    1  UNL1       -0.0609
      7  C5        -2.0080   -0.1360    1.5200 C.ar    1  UNL1       -0.0582
      8  C6        -1.5770   -0.6680    0.3080 C.ar    1  UNL1       -0.0409
      9  C7        -0.4870   -1.7090    0.3730 C.3     1  UNL1        0.0171
     10  C8         0.7870   -1.1400    0.7120 C.ar    1  UNL1        0.0736
     11  N1         1.1710   -1.1740    2.0030 N.ar    1  UNL1       -0.1750
     12  N2         2.2900   -0.6560    2.4650 N.ar    1  UNL1       -0.2425
     13  C9         3.1530   -0.0360    1.6400 C.ar    1  UNL1        0.2725
     14  O3         4.2300    0.4680    2.0570 O.2     1  UNL1       -0.2658
     15  C10        2.8410    0.0430    0.3030 C.ar    1  UNL1        0.0496
     16  C11        3.6730    0.6500   -0.6140 C.ar    1  UNL1       -0.0487
     17  C12        3.3880    0.7330   -1.9650 C.ar    1  UNL1       -0.0610
     18  C13        2.1870    0.1630   -2.3980 C.ar    1  UNL1       -0.0611
     19  C14        1.3460   -0.4450   -1.4970 C.ar    1  UNL1       -0.0521
     20  C15        1.6410   -0.5180   -0.1580 C.ar    1  UNL1        0.0106
     21  C16       -2.1600   -0.2520   -0.8580 C.ar    1  UNL1       -0.0494
     22 H          -4.3538    1.9205    0.3548 H       1  UNL1        0.0624
     23 H          -3.3396    1.1964    2.4076 H       1  UNL1        0.0618
     24 H          -1.5787   -0.4385    2.4084 H       1  UNL1        0.0620
     25 H          -0.4084   -2.1857   -0.5817 H       1  UNL1        0.0377
     26 H          -0.7476   -2.4101    1.1381 H       1  UNL1        0.0377
     27 H           2.4974   -0.7232    3.4251 H       1  UNL1        0.1921
     28 H           4.5550    1.0643   -0.2743 H       1  UNL1        0.0625
     29 H           4.0334    1.1953   -2.6243 H       1  UNL1        0.0618
     30 H           1.9313    0.1989   -3.3972 H       1  UNL1        0.0618
     31 H           0.4646   -0.8599   -1.8377 H       1  UNL1        0.0624
     32 H          -1.8335   -0.6517   -1.7517 H       1  UNL1        0.0627
@<TRIPOS>UNITY_ATOM_ATTR
3 1
charge -1
@<TRIPOS>BOND
     1     1     2   ar
     2     2     3   ar
     3     2     4    1
     4     4     5   ar
     5     4    21   ar
     6     5     6   ar
     7     6     7   ar
     8     7     8   ar
     9     8     9    1
    10     8    21   ar
    11     9    10    1
    12    10    11   ar
    13    10    20   ar
    14    11    12   ar
    15    12    13   ar
    16    13    14    2
    17    13    15   ar
    18    15    16   ar
    19    15    20   ar
    20    16    17   ar
    21    17    18   ar
    22    18    19   ar
    23    19    20   ar
    24     5    22    1
    25     6    23    1
    26     7    24    1
    27     9    25    1
    28     9    26    1
    29    12    27    1
    30    16    28    1
    31    17    29    1
    32    18    30    1
    33    19    31    1
    34    21    32    1
@<TRIPOS>MOLECULE
../data/bude_mols_rdkit_confs_charged/molecule_9.pdb
 32 34 0 0 0
SMALL
GASTEIGER

@<TRIPOS>ATOM
      1  O1         2.8550    3.0490    0.1310 O.co2   1  UNL1       -0.5446
      2  C1         3.5550    2.1160    0.6290 C.2     1  UNL1        0.0717
      3  O2         4.7160    2.3790    1.3410 O.co2   1  UNL1       -0.5446
      4  C2         3.1240    0.7400    0.4480 C.ar    1  UNL1       -0.0024
      5  C3         3.8510   -0.2980    0.9950 C.ar    1  UNL1       -0.0529
      6  C4         3.4140   -1.6040    0.8180 C.ar    1  UNL1       -0.0609
      7  C5         2.2650   -1.8590    0.1030 C.ar    1  UNL1       -0.0582
      8  C6         1.5140   -0.8080   -0.4610 C.ar    1  UNL1       -0.0409
      9  C7         0.3050   -1.1890   -1.2020 C.3     1  UNL1        0.0171
     10  C8        -0.9410   -1.1890   -0.4040 C.ar    1  UNL1        0.0736
     11  N1        -1.3360   -2.2970    0.2630 N.ar    1  UNL1       -0.1750
     12  N2        -2.3910   -2.2980    1.0330 N.ar    1  UNL1       -0.2425
     13  C9        -3.1580   -1.2040    1.2170 C.ar    1  UNL1        0.2725
     14  O3        -4.1620   -1.2570    1.9690 O.2     1  UNL1       -0.2658
     15  C10       -2.8060   -0.0470    0.5640 C.ar    1  UNL1        0.0496
     16  C11       -3.5720    1.0710    0.7140 C.ar    1  UNL1       -0.0487
     17  C12       -3.2490    2.2420    0.0470 C.ar    1  UNL1       -0.0610
     18  C13       -2.1510    2.3080   -0.7830 C.ar    1  UNL1       -0.0611
     19  C14       -1.3990    1.1330   -0.9010 C.ar    1  UNL1       -0.0521
     20  C15       -1.6780   -0.0360   -0.2650 C.ar    1  UNL1        0.0106
     21  C16        1.9670    0.4530   -0.2700 C.ar    1  UNL1       -0.0494
     22 H           4.7117   -0.1051    1.5308 H       1  UNL1        0.0624
     23 H           3.9518   -2.3859    1.2235 H       1  UNL1        0.0618
     24 H           1.9493   -2.8336   -0.0217 H       1  UNL1        0.0620
     25 H           0.4505   -2.1751   -1.5909 H       1  UNL1        0.0377
     26 H           0.1738   -0.4484   -1.9631 H       1  UNL1        0.0377
     27 H          -2.6361   -3.1306    1.4977 H       1  UNL1        0.1921
     28 H          -4.3997    1.0449    1.3298 H       1  UNL1        0.0625
     29 H          -3.8404    3.0782    0.1740 H       1  UNL1        0.0618
     30 H          -1.8981    3.1720   -1.2875 H       1  UNL1        0.0618
     31 H          -0.5711    1.1558   -1.5167 H       1  UNL1        0.0624
     32 H           1.4307    1.2363   -0.6747 H       1  UNL1        0.0627
@<TRIPOS>UNITY_ATOM_ATTR
3 1
charge -1
@<TRIPOS>BOND
     1     1     2   ar
     2     2     3   ar
     3     2     4    1
     4     4     5   ar
     5     4    21   ar
     6     5     6   ar
     7     6     7   ar
     8     7     8   ar
     9     8     9    1
    10     8    21   ar
    11     9    10    1
    12    10    11   ar
    13    10    20   ar
    14    11    12   ar
    15    12    13   ar
    16    13    14    2
    17    13    15   ar
    18    15    16   ar
    19    15    20   ar
    20    16    17   ar
    21    17    18   ar
    22    18    19   ar
    23    19    20   ar
    24     5    22    1
    25     6    23    1
    26     7    24    1
    27     9    25    1
    28     9    26    1
    29    12    27    1
    30    16    28    1
    31    17    29    1
    32    18    30    1
    33    19    31    1
    34    21    32    1
@<TRIPOS>MOLECULE
../data/bude_mols_rdkit_confs_charged/molecule_9.pdb
 32 34 0 0 0
SMALL
GASTEIGER

@<TRIPOS>ATOM
      1  O1         3.6820    2.7170   -0.7580 O.co2   1  UNL1       -0.5446
      2  C1         4.0710    1.8290    0.0320 C.2     1  UNL1        0.0717
      3  O2         5.1980    2.0100    0.8110 O.co2   1  UNL1       -0.5446
      4  C2         3.3310    0.5880    0.1350 C.ar    1  UNL1       -0.0024
      5  C3         3.7200   -0.4160    0.9890 C.ar    1  UNL1       -0.0529
      6  C4         2.9800   -1.5660    1.0420 C.ar    1  UNL1       -0.0609
      7  C5         1.8580   -1.7320    0.2590 C.ar    1  UNL1       -0.0582
      8  C6         1.4420   -0.7210   -0.6190 C.ar    1  UNL1       -0.0409
      9  C7         0.2560   -0.9540   -1.4570 C.3     1  UNL1        0.0171
     10  C8        -1.0190   -1.0260   -0.7300 C.ar    1  UNL1        0.0736
     11  N1        -1.4990   -2.2600   -0.3830 N.ar    1  UNL1       -0.1750
     12  N2        -2.5990   -2.4520    0.3050 N.ar    1  UNL1       -0.2425
     13  C9        -3.2880   -1.3690    0.6880 C.ar    1  UNL1        0.2725
     14  O3        -4.3640   -1.4990    1.3610 O.2     1  UNL1       -0.2658
     15  C10       -2.8760   -0.0880    0.3790 C.ar    1  UNL1        0.0496
     16  C11       -3.5900    1.0230    0.7620 C.ar    1  UNL1       -0.0487
     17  C12       -3.1450    2.2810    0.4190 C.ar    1  UNL1       -0.0610
     18  C13       -1.9860    2.4510   -0.3080 C.ar    1  UNL1       -0.0611
     19  C14       -1.2600    1.3550   -0.6990 C.ar    1  UNL1       -0.0521
     20  C15       -1.7130    0.0890   -0.3480 C.ar    1  UNL1        0.0106
     21  C16        2.1990    0.4040   -0.6470 C.ar    1  UNL1       -0.0494
     22 H           4.5576   -0.3044    1.5815 H       1  UNL1        0.0624
     23 H           3.2677   -2.3237    1.6808 H       1  UNL1        0.0618
     24 H           1.3184   -2.6096    0.3195 H       1  UNL1        0.0620
     25 H           0.3939   -1.8795   -1.9760 H       1  UNL1        0.0377
     26 H           0.1802   -0.1071   -2.1066 H       1  UNL1        0.0377
     27 H          -2.9071   -3.3591    0.5317 H       1  UNL1        0.1921
     28 H          -4.4598    0.9145    1.3067 H       1  UNL1        0.0625
     29 H          -3.6877    3.1089    0.7108 H       1  UNL1        0.0618
     30 H          -1.6657    3.3999   -0.5572 H       1  UNL1        0.0618
     31 H          -0.3916    1.4686   -1.2449 H       1  UNL1        0.0624
     32 H           1.9179    1.1651   -1.2848 H       1  UNL1        0.0627
@<TRIPOS>UNITY_ATOM_ATTR
3 1
charge -1
@<TRIPOS>BOND
     1     1     2   ar
     2     2     3   ar
     3     2     4    1
     4     4     5   ar
     5     4    21   ar
     6     5     6   ar
     7     6     7   ar
     8     7     8   ar
     9     8     9    1
    10     8    21   ar
    11     9    10    1
    12    10    11   ar
    13    10    20   ar
    14    11    12   ar
    15    12    13   ar
    16    13    14    2
    17    13    15   ar
    18    15    16   ar
    19    15    20   ar
    20    16    17   ar
    21    17    18   ar
    22    18    19   ar
    23    19    20   ar
    24     5    22    1
    25     6    23    1
    26     7    24    1
    27     9    25    1
    28     9    26    1
    29    12    27    1
    30    16    28    1
    31    17    29    1
    32    18    30    1
    33    19    31    1
    34    21    32    1
@<TRIPOS>MOLECULE
../data/bude_mols_rdkit_confs_charged/molecule_9.pdb
 32 34 0 0 0
SMALL
GASTEIGER

@<TRIPOS>ATOM
      1  O1         5.9020    0.9590   -0.8230 O.co2   1  UNL1       -0.5446
      2  C1         4.7470    1.1490   -0.3660 C.2     1  UNL1        0.0717
      3  O2         4.3940    2.4010    0.0790 O.co2   1  UNL1       -0.5446
      4  C2         3.7980    0.0170   -0.3210 C.ar    1  UNL1       -0.0024
      5  C3         4.1810   -1.2220   -0.7740 C.ar    1  UNL1       -0.0529
      6  C4         3.2500   -2.2640   -0.7120 C.ar    1  UNL1       -0.0609
      7  C5         1.9870   -2.0770   -0.2180 C.ar    1  UNL1       -0.0582
      8  C6         1.6060   -0.8370    0.2350 C.ar    1  UNL1       -0.0409
      9  C7         0.2940   -0.5150    0.7790 C.3     1  UNL1        0.0171
     10  C8        -0.6990   -0.0460   -0.1910 C.ar    1  UNL1        0.0736
     11  N1        -0.5070    0.1070   -1.5000 N.ar    1  UNL1       -0.1750
     12  N2        -1.4690    0.5410   -2.3210 N.ar    1  UNL1       -0.2425
     13  C9        -2.6890    0.8540   -1.8990 C.ar    1  UNL1        0.2725
     14  O3        -3.5790    1.2610   -2.6820 O.2     1  UNL1       -0.2658
     15  C10       -2.9710    0.7240   -0.5550 C.ar    1  UNL1        0.0496
     16  C11       -4.2130    1.0390   -0.1030 C.ar    1  UNL1       -0.0487
     17  C12       -4.5190    0.9200    1.2220 C.ar    1  UNL1       -0.0610
     18  C13       -3.5360    0.4730    2.0780 C.ar    1  UNL1       -0.0611
     19  C14       -2.2720    0.1500    1.6290 C.ar    1  UNL1       -0.0521
     20  C15       -1.9540    0.2680    0.2930 C.ar    1  UNL1        0.0106
     21  C16        2.5330    0.2180    0.1770 C.ar    1  UNL1       -0.0494
     22 H           5.1292   -1.3796   -1.1496 H       1  UNL1        0.0624
     23 H           3.5230   -3.2007   -1.0483 H       1  UNL1        0.0618
     24 H           1.3224   -2.8658   -0.1859 H       1  UNL1        0.0620
     25 H           0.4223    0.2514    1.5146 H       1  UNL1        0.0377
     26 H          -0.0922   -1.4327    1.1708 H       1  UNL1        0.0377
     27 H          -1.2643    0.6325   -3.2796 H       1  UNL1        0.1921
     28 H          -4.9305    1.3708   -0.7665 H       1  UNL1        0.0625
     29 H          -5.4599    1.1581    1.5727 H       1  UNL1        0.0618
     30 H          -3.7512    0.3772    3.0828 H       1  UNL1        0.0618
     31 H          -1.5598   -0.1822    2.2979 H       1  UNL1        0.0624
     32 H           2.2603    1.1551    0.5125 H       1  UNL1        0.0627
@<TRIPOS>UNITY_ATOM_ATTR
3 1
charge -1
@<TRIPOS>BOND
     1     1     2   ar
     2     2     3   ar
     3     2     4    1
     4     4     5   ar
     5     4    21   ar
     6     5     6   ar
     7     6     7   ar
     8     7     8   ar
     9     8     9    1
    10     8    21   ar
    11     9    10    1
    12    10    11   ar
    13    10    20   ar
    14    11    12   ar
    15    12    13   ar
    16    13    14    2
    17    13    15   ar
    18    15    16   ar
    19    15    20   ar
    20    16    17   ar
    21    17    18   ar
    22    18    19   ar
    23    19    20   ar
    24     5    22    1
    25     6    23    1
    26     7    24    1
    27     9    25    1
    28     9    26    1
    29    12    27    1
    30    16    28    1
    31    17    29    1
    32    18    30    1
    33    19    31    1
    34    21    32    1
