@<TRIPOS>MOLECULE
../data/bude_mols_rdkit_confs_charged/molecule_6.pdb
 48 51 0 0 0
SMALL
GASTEIGER

@<TRIPOS>ATOM
      1  N1        -6.7860   -1.4610   -0.0110 N.pl3   1  UNL1       -0.3056
      2  C1        -5.7810   -0.4680   -0.1390 C.ar    1  UNL1        0.2672
      3  C2        -4.5900   -0.5460    0.5350 C.ar    1  UNL1        0.0337
      4  C3        -3.5770    0.4220    0.3980 C.ar    1  UNL1       -0.0015
      5  C4        -2.3650    0.1300    1.1390 C.ar    1  UNL1        0.0233
      6  C5        -2.2940   -0.2930    2.4720 C.ar    1  UNL1        0.0303
      7  N2        -1.0300   -0.5890    2.7780 N.ar    1  UNL1       -0.2839
      8  N3        -0.3170   -0.3750    1.7170 N.ar    1  UNL1       -0.1779
      9  C6        -1.0640    0.0720    0.6640 C.ar    1  UNL1        0.0751
     10  C7        -0.6140    0.5480   -0.6600 C.3     1  UNL1        0.0208
     11  C8        -0.3910   -0.5900   -1.6590 C.3     1  UNL1       -0.0274
     12  C9         0.4470   -1.4800   -0.7390 C.3     1  UNL1        0.0153
     13  N4         1.4860   -0.4970   -0.3360 N.am    1  UNL1       -0.3006
     14  C10        2.7590   -0.9490    0.0410 C.2     1  UNL1        0.2187
     15  O1         3.0130   -2.1430    0.2120 O.2     1  UNL1       -0.2753
     16  C11        3.8040    0.1220    0.2120 C.3     1  UNL1        0.0358
     17  C12        4.4260    0.3850   -1.1550 C.3     1  UNL1       -0.0419
     18  C13        5.8170    0.8390   -0.8470 C.3     1  UNL1       -0.0523
     19  C14        6.0320    0.6900    0.6270 C.3     1  UNL1       -0.0523
     20  C15        4.9390   -0.2640    1.0730 C.3     1  UNL1       -0.0419
     21  C16        0.9220    0.8340   -0.4130 C.3     1  UNL1        0.0230
     22  C17       -3.8310    1.4560   -0.4390 C.ar    1  UNL1        0.0100
     23  C18       -5.0440    1.5340   -1.1260 C.ar    1  UNL1        0.1716
     24  N5        -5.9890    0.5880   -0.9710 N.ar    1  UNL1       -0.1984
     25 H          -6.6454   -2.2292    0.5884 H       1  UNL1        0.1477
     26 H          -7.6240   -1.3819   -0.5216 H       1  UNL1        0.1477
     27 H          -4.4296   -1.3455    1.1675 H       1  UNL1        0.0704
     28 H          -3.0958   -0.3646    3.1178 H       1  UNL1        0.0830
     29 H          -0.6999   -0.9103    3.6481 H       1  UNL1        0.1882
     30 H          -1.3004    1.2960   -0.9979 H       1  UNL1        0.0380
     31 H           0.1493   -0.2736   -2.5267 H       1  UNL1        0.0287
     32 H          -1.2667   -1.0316   -2.0868 H       1  UNL1        0.0287
     33 H           0.8665   -2.3137   -1.2623 H       1  UNL1        0.0465
     34 H          -0.0880   -1.9368    0.0673 H       1  UNL1        0.0465
     35 H           3.3009    0.9553    0.6564 H       1  UNL1        0.0394
     36 H           3.8856    1.1467   -1.6771 H       1  UNL1        0.0272
     37 H           4.4083   -0.4795   -1.7853 H       1  UNL1        0.0272
     38 H           5.9364    1.8639   -1.1304 H       1  UNL1        0.0265
     39 H           6.5296    0.2535   -1.3894 H       1  UNL1        0.0265
     40 H           5.9354    1.6341    1.1211 H       1  UNL1        0.0265
     41 H           7.0109    0.3274    0.8619 H       1  UNL1        0.0265
     42 H           5.2226   -1.2820    0.9050 H       1  UNL1        0.0272
     43 H           4.7204   -0.2020    2.1186 H       1  UNL1        0.0272
     44 H           1.0724    1.3701    0.5007 H       1  UNL1        0.0471
     45 H           1.3682    1.4406   -1.1732 H       1  UNL1        0.0471
     46 H          -3.1211    2.1934   -0.5703 H       1  UNL1        0.0683
     47 H          -5.2185    2.3281   -1.7616 H       1  UNL1        0.1376
     48 H          -6.8380    0.6610   -1.4640 H       1  UNL1        0.4542
@<TRIPOS>UNITY_ATOM_ATTR
24 1
charge 1
@<TRIPOS>BOND
     1     1     2    1
     2     2     3   ar
     3     2    24   ar
     4     3     4   ar
     5     4     5    1
     6     4    22   ar
     7     5     6   ar
     8     5     9   ar
     9     6     7   ar
    10     7     8   ar
    11     8     9   ar
    12     9    10    1
    13    10    11    1
    14    10    21    1
    15    11    12    1
    16    12    13    1
    17    13    14   am
    18    13    21    1
    19    14    15    2
    20    14    16    1
    21    16    17    1
    22    16    20    1
    23    17    18    1
    24    18    19    1
    25    19    20    1
    26    22    23   ar
    27    23    24   ar
    28     1    25    1
    29     1    26    1
    30     3    27    1
    31     6    28    1
    32     7    29    1
    33    10    30    1
    34    11    31    1
    35    11    32    1
    36    12    33    1
    37    12    34    1
    38    16    35    1
    39    17    36    1
    40    17    37    1
    41    18    38    1
    42    18    39    1
    43    19    40    1
    44    19    41    1
    45    20    42    1
    46    20    43    1
    47    21    44    1
    48    21    45    1
    49    22    46    1
    50    23    47    1
    51    24    48    1
@<TRIPOS>MOLECULE
../data/bude_mols_rdkit_confs_charged/molecule_6.pdb
 48 51 0 0 0
SMALL
GASTEIGER

@<TRIPOS>ATOM
      1  N1        -5.7420    2.7350    0.1210 N.pl3   1  UNL1       -0.3056
      2  C1        -5.2450    1.4330    0.0230 C.ar    1  UNL1        0.2672
      3  C2        -4.0340    1.0660    0.6330 C.ar    1  UNL1        0.0337
      4  C3        -3.6050   -0.2030    0.4990 C.ar    1  UNL1       -0.0015
      5  C4        -2.4300   -0.8290    1.1250 C.ar    1  UNL1        0.0233
      6  C5        -2.4260   -1.4180    2.3990 C.ar    1  UNL1        0.0303
      7  N2        -1.2870   -2.0650    2.5350 N.ar    1  UNL1       -0.2839
      8  N3        -0.5940   -1.8970    1.4080 N.ar    1  UNL1       -0.1779
      9  C6        -1.2610   -1.1420    0.5180 C.ar    1  UNL1        0.0751
     10  C7        -0.7070   -0.5920   -0.7150 C.3     1  UNL1        0.0208
     11  C8        -0.0180   -1.5250   -1.6600 C.3     1  UNL1       -0.0274
     12  C9         1.0720   -2.1060   -0.8520 C.3     1  UNL1        0.0153
     13  N4         1.6250   -0.8500   -0.2800 N.am    1  UNL1       -0.3006
     14  C10        2.9910   -0.7740    0.0810 C.2     1  UNL1        0.2187
     15  O1         3.7170   -1.8340   -0.0130 O.2     1  UNL1       -0.2753
     16  C11        3.6790    0.4640    0.5680 C.3     1  UNL1        0.0358
     17  C12        5.1240    0.1590    0.8580 C.3     1  UNL1       -0.0419
     18  C13        5.9810    1.1350    0.1240 C.3     1  UNL1       -0.0523
     19  C14        5.0810    2.1420   -0.5160 C.3     1  UNL1       -0.0523
     20  C15        3.7190    1.4910   -0.5500 C.3     1  UNL1       -0.0419
     21  C16        0.6060    0.1430   -0.1920 C.3     1  UNL1        0.0230
     22  C17       -4.3970   -1.1040   -0.2480 C.ar    1  UNL1        0.0100
     23  C18       -5.5570   -0.7120   -0.8140 C.ar    1  UNL1        0.1716
     24  N5        -5.9720    0.5460   -0.6780 N.ar    1  UNL1       -0.1984
     25 H          -5.2412    3.4164    0.6252 H       1  UNL1        0.1477
     26 H          -6.5930    2.9711   -0.3141 H       1  UNL1        0.1477
     27 H          -3.4853    1.7540    1.1720 H       1  UNL1        0.0704
     28 H          -3.1791   -1.3554    3.1018 H       1  UNL1        0.0830
     29 H          -0.9997   -2.5787    3.3242 H       1  UNL1        0.1882
     30 H          -1.5246   -0.1050   -1.2042 H       1  UNL1        0.0380
     31 H           0.3737   -0.9936   -2.5020 H       1  UNL1        0.0287
     32 H          -0.6761   -2.2675   -2.0607 H       1  UNL1        0.0287
     33 H           1.7887   -2.6226   -1.4557 H       1  UNL1        0.0465
     34 H           0.7748   -2.8468   -0.1394 H       1  UNL1        0.0465
     35 H           3.1547    0.8151    1.4321 H       1  UNL1        0.0394
     36 H           5.3533   -0.8347    0.5342 H       1  UNL1        0.0272
     37 H           5.3066    0.2356    1.9095 H       1  UNL1        0.0272
     38 H           6.5507    0.6272   -0.6260 H       1  UNL1        0.0265
     39 H           6.6609    1.6152    0.7964 H       1  UNL1        0.0265
     40 H           5.4144    2.3665   -1.5076 H       1  UNL1        0.0265
     41 H           5.0689    3.0667    0.0223 H       1  UNL1        0.0265
     42 H           2.9577    2.2273   -0.3977 H       1  UNL1        0.0272
     43 H           3.5463    1.0251   -1.4976 H       1  UNL1        0.0272
     44 H           0.4806    0.4686    0.8195 H       1  UNL1        0.0471
     45 H           0.8384    1.0185   -0.7615 H       1  UNL1        0.0471
     46 H          -4.0820   -2.0801   -0.3626 H       1  UNL1        0.0683
     47 H          -6.1227   -1.3868   -1.3522 H       1  UNL1        0.1376
     48 H          -6.8182    0.8287   -1.0943 H       1  UNL1        0.4542
@<TRIPOS>UNITY_ATOM_ATTR
24 1
charge 1
@<TRIPOS>BOND
     1     1     2    1
     2     2     3   ar
     3     2    24   ar
     4     3     4   ar
     5     4     5    1
     6     4    22   ar
     7     5     6   ar
     8     5     9   ar
     9     6     7   ar
    10     7     8   ar
    11     8     9   ar
    12     9    10    1
    13    10    11    1
    14    10    21    1
    15    11    12    1
    16    12    13    1
    17    13    14   am
    18    13    21    1
    19    14    15    2
    20    14    16    1
    21    16    17    1
    22    16    20    1
    23    17    18    1
    24    18    19    1
    25    19    20    1
    26    22    23   ar
    27    23    24   ar
    28     1    25    1
    29     1    26    1
    30     3    27    1
    31     6    28    1
    32     7    29    1
    33    10    30    1
    34    11    31    1
    35    11    32    1
    36    12    33    1
    37    12    34    1
    38    16    35    1
    39    17    36    1
    40    17    37    1
    41    18    38    1
    42    18    39    1
    43    19    40    1
    44    19    41    1
    45    20    42    1
    46    20    43    1
    47    21    44    1
    48    21    45    1
    49    22    46    1
    50    23    47    1
    51    24    48    1
@<TRIPOS>MOLECULE
../data/bude_mols_rdkit_confs_charged/molecule_6.pdb
 48 51 0 0 0
SMALL
GASTEIGER

@<TRIPOS>ATOM
      1  N1        -4.6390    3.0370   -0.4600 N.pl3   1  UNL1       -0.3056
      2  C1        -4.7590    1.6410   -0.3200 C.ar    1  UNL1        0.2672
      3  C2        -3.6490    0.9260    0.1030 C.ar    1  UNL1        0.0337
      4  C3        -3.7210   -0.4180    0.2540 C.ar    1  UNL1       -0.0015
      5  C4        -2.6700   -1.3280    0.6720 C.ar    1  UNL1        0.0233
      6  C5        -2.7950   -2.2930    1.6970 C.ar    1  UNL1        0.0303
      7  N2        -1.6350   -2.9580    1.7850 N.ar    1  UNL1       -0.2839
      8  N3        -0.7890   -2.4950    0.9060 N.ar    1  UNL1       -0.1779
      9  C6        -1.3980   -1.4910    0.2050 C.ar    1  UNL1        0.0751
     10  C7        -0.7290   -0.7000   -0.8830 C.3     1  UNL1        0.0208
     11  C8         0.4450   -1.5150   -1.3340 C.3     1  UNL1       -0.0274
     12  C9         1.5360   -1.0880   -0.3600 C.3     1  UNL1        0.0153
     13  N4         1.3380    0.3220   -0.2180 N.am    1  UNL1       -0.3006
     14  C10        2.2820    1.3230    0.0470 C.2     1  UNL1        0.2187
     15  O1         1.8140    2.5230    0.1130 O.2     1  UNL1       -0.2753
     16  C11        3.7140    1.2100    0.2590 C.3     1  UNL1        0.0358
     17  C12        4.5490    0.8150   -0.9110 C.3     1  UNL1       -0.0419
     18  C13        5.9320    0.7290   -0.2270 C.3     1  UNL1       -0.0523
     19  C14        5.6210    0.1350    1.1390 C.3     1  UNL1       -0.0523
     20  C15        4.1160    0.1810    1.3050 C.3     1  UNL1       -0.0419
     21  C16       -0.1190    0.5620   -0.3900 C.3     1  UNL1        0.0230
     22  C17       -4.9690   -0.9940   -0.0430 C.ar    1  UNL1        0.0100
     23  C18       -6.0500   -0.2610   -0.4600 C.ar    1  UNL1        0.1716
     24  N5        -5.9460    1.0680   -0.6000 N.ar    1  UNL1       -0.1984
     25 H          -3.7824    3.4798   -0.2616 H       1  UNL1        0.1477
     26 H          -5.4117    3.5702   -0.7563 H       1  UNL1        0.1477
     27 H          -2.7651    1.4195    0.3034 H       1  UNL1        0.0704
     28 H          -3.6331   -2.4568    2.2764 H       1  UNL1        0.0830
     29 H          -1.4486   -3.6878    2.4189 H       1  UNL1        0.1882
     30 H          -1.4666   -0.4822   -1.6269 H       1  UNL1        0.0380
     31 H           0.7138   -1.2807   -2.3428 H       1  UNL1        0.0287
     32 H           0.2592   -2.5687   -1.3314 H       1  UNL1        0.0287
     33 H           2.5063   -1.2979   -0.7593 H       1  UNL1        0.0465
     34 H           1.4825   -1.6083    0.5735 H       1  UNL1        0.0465
     35 H           3.9040    2.2235    0.5446 H       1  UNL1        0.0394
     36 H           4.5313    1.5571   -1.6817 H       1  UNL1        0.0272
     37 H           4.2347   -0.0767   -1.4120 H       1  UNL1        0.0272
     38 H           6.3710    1.7000   -0.1301 H       1  UNL1        0.0265
     39 H           6.6348    0.1448   -0.7835 H       1  UNL1        0.0265
     40 H           6.0939    0.7106    1.9071 H       1  UNL1        0.0265
     41 H           5.9845   -0.8687    1.2126 H       1  UNL1        0.0265
     42 H           3.6733   -0.7720    1.1032 H       1  UNL1        0.0272
     43 H           3.7986    0.4271    2.2967 H       1  UNL1        0.0272
     44 H          -0.5564    0.8365    0.5472 H       1  UNL1        0.0471
     45 H          -0.2885    1.3572   -1.0856 H       1  UNL1        0.0471
     46 H          -5.0761   -2.0155    0.0576 H       1  UNL1        0.0683
     47 H          -6.9444   -0.7328   -0.6662 H       1  UNL1        0.1376
     48 H          -6.7129    1.6086   -0.8981 H       1  UNL1        0.4542
@<TRIPOS>UNITY_ATOM_ATTR
24 1
charge 1
@<TRIPOS>BOND
     1     1     2    1
     2     2     3   ar
     3     2    24   ar
     4     3     4   ar
     5     4     5    1
     6     4    22   ar
     7     5     6   ar
     8     5     9   ar
     9     6     7   ar
    10     7     8   ar
    11     8     9   ar
    12     9    10    1
    13    10    11    1
    14    10    21    1
    15    11    12    1
    16    12    13    1
    17    13    14   am
    18    13    21    1
    19    14    15    2
    20    14    16    1
    21    16    17    1
    22    16    20    1
    23    17    18    1
    24    18    19    1
    25    19    20    1
    26    22    23   ar
    27    23    24   ar
    28     1    25    1
    29     1    26    1
    30     3    27    1
    31     6    28    1
    32     7    29    1
    33    10    30    1
    34    11    31    1
    35    11    32    1
    36    12    33    1
    37    12    34    1
    38    16    35    1
    39    17    36    1
    40    17    37    1
    41    18    38    1
    42    18    39    1
    43    19    40    1
    44    19    41    1
    45    20    42    1
    46    20    43    1
    47    21    44    1
    48    21    45    1
    49    22    46    1
    50    23    47    1
    51    24    48    1
@<TRIPOS>MOLECULE
../data/bude_mols_rdkit_confs_charged/molecule_6.pdb
 48 51 0 0 0
SMALL
GASTEIGER

@<TRIPOS>ATOM
      1  N1         6.7520    1.1020    0.2230 N.pl3   1  UNL1       -0.3056
      2  C1         5.7350    0.4630   -0.5440 C.ar    1  UNL1        0.2672
      3  C2         4.6680   -0.1080    0.1460 C.ar    1  UNL1        0.0337
      4  C3         3.5920   -0.7470   -0.5120 C.ar    1  UNL1       -0.0015
      5  C4         2.5440   -1.3140    0.3080 C.ar    1  UNL1        0.0233
      6  C5         2.6860   -2.3870    1.2040 C.ar    1  UNL1        0.0303
      7  N2         1.5320   -2.5450    1.8480 N.ar    1  UNL1       -0.2839
      8  N3         0.7040   -1.6380    1.3940 N.ar    1  UNL1       -0.1779
      9  C6         1.2930   -0.8640    0.4430 C.ar    1  UNL1        0.0751
     10  C7         0.4950    0.1080   -0.3630 C.3     1  UNL1        0.0208
     11  C8         0.7480    1.5550   -0.0440 C.3     1  UNL1       -0.0274
     12  C9        -0.5890    2.2260   -0.2660 C.3     1  UNL1        0.0153
     13  N4        -1.5780    1.1680   -0.1700 N.am    1  UNL1       -0.3006
     14  C10       -2.9500    1.2090   -0.5120 C.2     1  UNL1        0.2187
     15  O1        -3.4560    2.2850   -1.0140 O.2     1  UNL1       -0.2753
     16  C11       -3.8760    0.0830   -0.3420 C.3     1  UNL1        0.0358
     17  C12       -5.1390    0.2750   -1.1870 C.3     1  UNL1       -0.0419
     18  C13       -6.2930   -0.2540   -0.3550 C.3     1  UNL1       -0.0523
     19  C14       -5.6190   -1.0280    0.7620 C.3     1  UNL1       -0.0523
     20  C15       -4.4230   -0.0900    1.0440 C.3     1  UNL1       -0.0419
     21  C16       -0.9240    0.0050    0.3510 C.3     1  UNL1        0.0230
     22  C17        3.6610   -0.7720   -1.8600 C.ar    1  UNL1        0.0100
     23  C18        4.7490   -0.1930   -2.5420 C.ar    1  UNL1        0.1716
     24  N5         5.7410    0.3970   -1.8790 N.ar    1  UNL1       -0.1984
     25 H           6.6912    1.1173    1.2055 H       1  UNL1        0.1477
     26 H           7.5154    1.5281   -0.2296 H       1  UNL1        0.1477
     27 H           4.6627   -0.0629    1.1770 H       1  UNL1        0.0704
     28 H           3.5375   -2.9542    1.3393 H       1  UNL1        0.0830
     29 H           1.3370   -3.2193    2.5383 H       1  UNL1        0.1882
     30 H           0.6580   -0.1053   -1.3988 H       1  UNL1        0.0380
     31 H           1.4901    1.9631   -0.6979 H       1  UNL1        0.0287
     32 H           1.1159    1.6960    0.9508 H       1  UNL1        0.0287
     33 H          -0.6221    2.6814   -1.2337 H       1  UNL1        0.0465
     34 H          -0.7670    3.0003    0.4507 H       1  UNL1        0.0465
     35 H          -3.2730   -0.7564   -0.6190 H       1  UNL1        0.0394
     36 H          -5.0596   -0.2742   -2.1019 H       1  UNL1        0.0272
     37 H          -5.2833    1.3040   -1.4422 H       1  UNL1        0.0272
     38 H          -6.9188   -0.8965   -0.9385 H       1  UNL1        0.0265
     39 H          -6.9274    0.5262    0.0106 H       1  UNL1        0.0265
     40 H          -5.2983   -1.9962    0.4385 H       1  UNL1        0.0265
     41 H          -6.2403   -1.2375    1.6076 H       1  UNL1        0.0265
     42 H          -4.7422    0.8420    1.4615 H       1  UNL1        0.0272
     43 H          -3.7195   -0.4676    1.7563 H       1  UNL1        0.0272
     44 H          -0.8320    0.0501    1.4161 H       1  UNL1        0.0471
     45 H          -1.4439   -0.9122    0.1682 H       1  UNL1        0.0471
     46 H           2.9049   -1.2223   -2.3991 H       1  UNL1        0.0683
     47 H           4.7775   -0.2268   -3.5731 H       1  UNL1        0.1376
     48 H           6.4913    0.7911   -2.3800 H       1  UNL1        0.4542
@<TRIPOS>UNITY_ATOM_ATTR
24 1
charge 1
@<TRIPOS>BOND
     1     1     2    1
     2     2     3   ar
     3     2    24   ar
     4     3     4   ar
     5     4     5    1
     6     4    22   ar
     7     5     6   ar
     8     5     9   ar
     9     6     7   ar
    10     7     8   ar
    11     8     9   ar
    12     9    10    1
    13    10    11    1
    14    10    21    1
    15    11    12    1
    16    12    13    1
    17    13    14   am
    18    13    21    1
    19    14    15    2
    20    14    16    1
    21    16    17    1
    22    16    20    1
    23    17    18    1
    24    18    19    1
    25    19    20    1
    26    22    23   ar
    27    23    24   ar
    28     1    25    1
    29     1    26    1
    30     3    27    1
    31     6    28    1
    32     7    29    1
    33    10    30    1
    34    11    31    1
    35    11    32    1
    36    12    33    1
    37    12    34    1
    38    16    35    1
    39    17    36    1
    40    17    37    1
    41    18    38    1
    42    18    39    1
    43    19    40    1
    44    19    41    1
    45    20    42    1
    46    20    43    1
    47    21    44    1
    48    21    45    1
    49    22    46    1
    50    23    47    1
    51    24    48    1
@<TRIPOS>MOLECULE
../data/bude_mols_rdkit_confs_charged/molecule_6.pdb
 48 51 0 0 0
SMALL
GASTEIGER

@<TRIPOS>ATOM
      1  N1        -5.6110    2.7410   -0.5870 N.pl3   1  UNL1       -0.3056
      2  C1        -5.1060    1.4390   -0.3600 C.ar    1  UNL1        0.2672
      3  C2        -3.9820    1.1640    0.4290 C.ar    1  UNL1        0.0337
      4  C3        -3.5110   -0.0690    0.6420 C.ar    1  UNL1       -0.0015
      5  C4        -2.3890   -0.5150    1.4470 C.ar    1  UNL1        0.0233
      6  C5        -2.5320   -0.9120    2.7710 C.ar    1  UNL1        0.0303
      7  N2        -1.3760   -1.4830    3.1300 N.ar    1  UNL1       -0.2839
      8  N3        -0.5440   -1.4550    2.1210 N.ar    1  UNL1       -0.1779
      9  C6        -1.1000   -0.8600    1.0400 C.ar    1  UNL1        0.0751
     10  C7        -0.4920   -0.4100   -0.2090 C.3     1  UNL1        0.0208
     11  C8        -0.4560   -1.3870   -1.3530 C.3     1  UNL1       -0.0274
     12  C9         0.5840   -0.5720   -2.2020 C.3     1  UNL1        0.0153
     13  N4         1.6690   -0.4810   -1.1690 N.am    1  UNL1       -0.3006
     14  C10        3.0150   -0.3060   -1.5300 C.2     1  UNL1        0.2187
     15  O1         3.1820   -0.0130   -2.7980 O.2     1  UNL1       -0.2753
     16  C11        4.2270   -0.4120   -0.7180 C.3     1  UNL1        0.0358
     17  C12        4.1650   -0.3310    0.7420 C.3     1  UNL1       -0.0419
     18  C13        4.3780    1.1050    1.1200 C.3     1  UNL1       -0.0523
     19  C14        5.4220    1.5490    0.1180 C.3     1  UNL1       -0.0523
     20  C15        5.1630    0.7360   -1.1220 C.3     1  UNL1       -0.0419
     21  C16        1.0840   -0.5600    0.1250 C.3     1  UNL1        0.0230
     22  C17       -4.2210   -1.1380    0.0130 C.ar    1  UNL1        0.0100
     23  C18       -5.3200   -0.8720   -0.7570 C.ar    1  UNL1        0.1716
     24  N5        -5.7350    0.3850   -0.9260 N.ar    1  UNL1       -0.1984
     25 H          -5.1647    3.5196   -0.1822 H       1  UNL1        0.1477
     26 H          -6.4087    2.8684   -1.1498 H       1  UNL1        0.1477
     27 H          -3.4903    1.9568    0.8703 H       1  UNL1        0.0704
     28 H          -3.3683   -0.7901    3.3632 H       1  UNL1        0.0830
     29 H          -1.1819   -1.8650    4.0164 H       1  UNL1        0.1882
     30 H          -0.9948    0.4978   -0.4697 H       1  UNL1        0.0380
     31 H          -1.4022   -1.4916   -1.8416 H       1  UNL1        0.0287
     32 H          -0.2217   -2.4064   -1.1273 H       1  UNL1        0.0287
     33 H           0.2115    0.3904   -2.4847 H       1  UNL1        0.0465
     34 H           0.8639   -1.0015   -3.1412 H       1  UNL1        0.0465
     35 H           4.5273   -1.4181   -0.9240 H       1  UNL1        0.0394
     36 H           4.9302   -0.9408    1.1751 H       1  UNL1        0.0272
     37 H           3.2192   -0.6802    1.1004 H       1  UNL1        0.0272
     38 H           4.7410    1.1923    2.1227 H       1  UNL1        0.0265
     39 H           3.4837    1.6921    1.0966 H       1  UNL1        0.0265
     40 H           6.4055    1.3560    0.4927 H       1  UNL1        0.0265
     41 H           5.3626    2.5994   -0.0772 H       1  UNL1        0.0265
     42 H           4.6977    1.3439   -1.8695 H       1  UNL1        0.0272
     43 H           6.0775    0.3581   -1.5290 H       1  UNL1        0.0272
     44 H           1.2951   -1.5001    0.5904 H       1  UNL1        0.0471
     45 H           1.4517    0.1748    0.8104 H       1  UNL1        0.0471
     46 H          -3.9042   -2.1119    0.1398 H       1  UNL1        0.0683
     47 H          -5.8303   -1.6467   -1.2091 H       1  UNL1        0.1376
     48 H          -6.5291    0.5508   -1.4838 H       1  UNL1        0.4542
@<TRIPOS>UNITY_ATOM_ATTR
24 1
charge 1
@<TRIPOS>BOND
     1     1     2    1
     2     2     3   ar
     3     2    24   ar
     4     3     4   ar
     5     4     5    1
     6     4    22   ar
     7     5     6   ar
     8     5     9   ar
     9     6     7   ar
    10     7     8   ar
    11     8     9   ar
    12     9    10    1
    13    10    11    1
    14    10    21    1
    15    11    12    1
    16    12    13    1
    17    13    14   am
    18    13    21    1
    19    14    15    2
    20    14    16    1
    21    16    17    1
    22    16    20    1
    23    17    18    1
    24    18    19    1
    25    19    20    1
    26    22    23   ar
    27    23    24   ar
    28     1    25    1
    29     1    26    1
    30     3    27    1
    31     6    28    1
    32     7    29    1
    33    10    30    1
    34    11    31    1
    35    11    32    1
    36    12    33    1
    37    12    34    1
    38    16    35    1
    39    17    36    1
    40    17    37    1
    41    18    38    1
    42    18    39    1
    43    19    40    1
    44    19    41    1
    45    20    42    1
    46    20    43    1
    47    21    44    1
    48    21    45    1
    49    22    46    1
    50    23    47    1
    51    24    48    1
@<TRIPOS>MOLECULE
../data/bude_mols_rdkit_confs_charged/molecule_6.pdb
 48 51 0 0 0
SMALL
GASTEIGER

@<TRIPOS>ATOM
      1  N1         5.9150   -1.6460   -1.5530 N.pl3   1  UNL1       -0.3056
      2  C1         5.4410   -0.9100   -0.4290 C.ar    1  UNL1        0.2672
      3  C2         4.3250   -0.1330   -0.5050 C.ar    1  UNL1        0.0337
      4  C3         3.9200    0.6310    0.5810 C.ar    1  UNL1       -0.0015
      5  C4         2.7400    1.4970    0.4220 C.ar    1  UNL1        0.0233
      6  C5         2.8640    2.8620    0.2830 C.ar    1  UNL1        0.0303
      7  N2         1.6380    3.2900   -0.0450 N.ar    1  UNL1       -0.2839
      8  N3         0.7850    2.2850   -0.1080 N.ar    1  UNL1       -0.1779
      9  C6         1.4700    1.1440    0.1890 C.ar    1  UNL1        0.0751
     10  C7         0.8110   -0.1750    0.4400 C.3     1  UNL1        0.0208
     11  C8         0.2780   -0.6640   -0.8770 C.3     1  UNL1       -0.0274
     12  C9        -1.1560   -0.9330   -0.7550 C.3     1  UNL1        0.0153
     13  N4        -1.5780   -0.2980    0.4930 N.am    1  UNL1       -0.3006
     14  C10       -2.9610   -0.1830    0.7970 C.2     1  UNL1        0.2187
     15  O1        -3.4140    0.2520    1.8910 O.2     1  UNL1       -0.2753
     16  C11       -4.0080   -0.5790   -0.1990 C.3     1  UNL1        0.0358
     17  C12       -4.7610    0.6490   -0.6720 C.3     1  UNL1       -0.0419
     18  C13       -6.1970    0.2920   -0.4790 C.3     1  UNL1       -0.0523
     19  C14       -6.2030   -0.7760    0.6050 C.3     1  UNL1       -0.0523
     20  C15       -4.9730   -1.5930    0.2520 C.3     1  UNL1       -0.0419
     21  C16       -0.4640    0.1860    1.2410 C.3     1  UNL1        0.0230
     22  C17        4.6810    0.5640    1.7140 C.ar    1  UNL1        0.0100
     23  C18        5.8030   -0.2420    1.7350 C.ar    1  UNL1        0.1716
     24  N5         6.2060   -0.9810    0.7010 N.ar    1  UNL1       -0.1984
     25 H           5.4087   -1.6356   -2.3973 H       1  UNL1        0.1477
     26 H           6.7488   -2.1650   -1.4854 H       1  UNL1        0.1477
     27 H           3.7753   -0.1120   -1.3781 H       1  UNL1        0.0704
     28 H           3.7163    3.4310    0.4051 H       1  UNL1        0.0830
     29 H           1.4039    4.2307   -0.2166 H       1  UNL1        0.1882
     30 H           1.4675   -0.8778    0.9091 H       1  UNL1        0.0380
     31 H           0.7868   -1.5630   -1.1558 H       1  UNL1        0.0287
     32 H           0.4377    0.0837   -1.6256 H       1  UNL1        0.0287
     33 H          -1.3349   -1.9872   -0.7153 H       1  UNL1        0.0465
     34 H          -1.7001   -0.5514   -1.5936 H       1  UNL1        0.0465
     35 H          -3.4611   -1.0425   -0.9933 H       1  UNL1        0.0394
     36 H          -4.5542    0.8477   -1.7028 H       1  UNL1        0.0272
     37 H          -4.4821    1.5330   -0.1375 H       1  UNL1        0.0272
     38 H          -6.6128   -0.0929   -1.3867 H       1  UNL1        0.0265
     39 H          -6.7861    1.1421   -0.2047 H       1  UNL1        0.0265
     40 H          -7.0910   -1.3711    0.5592 H       1  UNL1        0.0265
     41 H          -6.1871   -0.3809    1.5992 H       1  UNL1        0.0265
     42 H          -4.6041   -2.1187    1.1078 H       1  UNL1        0.0272
     43 H          -5.1672   -2.3424   -0.4866 H       1  UNL1        0.0272
     44 H          -0.5347    1.2470    1.3604 H       1  UNL1        0.0471
     45 H          -0.4392   -0.2535    2.2163 H       1  UNL1        0.0471
     46 H           4.4194    1.1118    2.5485 H       1  UNL1        0.0683
     47 H           6.3620   -0.2739    2.6019 H       1  UNL1        0.1376
     48 H           7.0104   -1.5466    0.7490 H       1  UNL1        0.4542
@<TRIPOS>UNITY_ATOM_ATTR
24 1
charge 1
@<TRIPOS>BOND
     1     1     2    1
     2     2     3   ar
     3     2    24   ar
     4     3     4   ar
     5     4     5    1
     6     4    22   ar
     7     5     6   ar
     8     5     9   ar
     9     6     7   ar
    10     7     8   ar
    11     8     9   ar
    12     9    10    1
    13    10    11    1
    14    10    21    1
    15    11    12    1
    16    12    13    1
    17    13    14   am
    18    13    21    1
    19    14    15    2
    20    14    16    1
    21    16    17    1
    22    16    20    1
    23    17    18    1
    24    18    19    1
    25    19    20    1
    26    22    23   ar
    27    23    24   ar
    28     1    25    1
    29     1    26    1
    30     3    27    1
    31     6    28    1
    32     7    29    1
    33    10    30    1
    34    11    31    1
    35    11    32    1
    36    12    33    1
    37    12    34    1
    38    16    35    1
    39    17    36    1
    40    17    37    1
    41    18    38    1
    42    18    39    1
    43    19    40    1
    44    19    41    1
    45    20    42    1
    46    20    43    1
    47    21    44    1
    48    21    45    1
    49    22    46    1
    50    23    47    1
    51    24    48    1
@<TRIPOS>MOLECULE
../data/bude_mols_rdkit_confs_charged/molecule_6.pdb
 48 51 0 0 0
SMALL
GASTEIGER

@<TRIPOS>ATOM
      1  N1         4.2550    0.1200   -3.2530 N.pl3   1  UNL1       -0.3056
      2  C1         3.8150    0.6010   -1.9860 C.ar    1  UNL1        0.2672
      3  C2         3.4360   -0.2290   -0.9610 C.ar    1  UNL1        0.0337
      4  C3         3.0050    0.2260    0.2760 C.ar    1  UNL1       -0.0015
      5  C4         2.6350   -0.7380    1.2990 C.ar    1  UNL1        0.0233
      6  C5         3.4190   -1.8370    1.6750 C.ar    1  UNL1        0.0303
      7  N2         2.8040   -2.5280    2.6460 N.ar    1  UNL1       -0.2839
      8  N3         1.6810   -1.9150    2.8890 N.ar    1  UNL1       -0.1779
      9  C6         1.5330   -0.8190    2.0950 C.ar    1  UNL1        0.0751
     10  C7         0.3800    0.0800    2.1200 C.3     1  UNL1        0.0208
     11  C8        -0.6920   -0.4420    3.0590 C.3     1  UNL1       -0.0274
     12  C9        -1.3110   -1.5230    2.1710 C.3     1  UNL1        0.0153
     13  N4        -1.4780   -0.8050    0.9240 N.am    1  UNL1       -0.3006
     14  C10       -2.5730   -0.9780    0.0540 C.2     1  UNL1        0.2187
     15  O1        -3.4800   -1.7920    0.3190 O.2     1  UNL1       -0.2753
     16  C11       -2.6650   -0.1920   -1.1940 C.3     1  UNL1        0.0358
     17  C12       -2.8670    1.2600   -0.8440 C.3     1  UNL1       -0.0419
     18  C13       -4.2150    1.6710   -1.4060 C.3     1  UNL1       -0.0523
     19  C14       -4.9030    0.3950   -1.8250 C.3     1  UNL1       -0.0523
     20  C15       -3.8210   -0.6210   -2.0570 C.3     1  UNL1       -0.0419
     21  C16       -0.3490    0.0570    0.7740 C.3     1  UNL1        0.0230
     22  C17        2.9570    1.5840    0.4840 C.ar    1  UNL1        0.0100
     23  C18        3.3460    2.3990   -0.5680 C.ar    1  UNL1        0.1716
     24  N5         3.7600    1.9250   -1.7570 N.ar    1  UNL1       -0.1984
     25 H           4.2966   -0.8486   -3.4244 H       1  UNL1        0.1477
     26 H           4.5174    0.7562   -3.9570 H       1  UNL1        0.1477
     27 H           3.4738   -1.2481   -1.1195 H       1  UNL1        0.0704
     28 H           4.3347   -2.0789    1.2651 H       1  UNL1        0.0830
     29 H           3.1371   -3.3414    3.0894 H       1  UNL1        0.1882
     30 H           0.7680    1.0390    2.3934 H       1  UNL1        0.0380
     31 H          -1.4012    0.3173    3.3148 H       1  UNL1        0.0287
     32 H          -0.3352   -0.7848    4.0077 H       1  UNL1        0.0287
     33 H          -2.2503   -1.8580    2.5589 H       1  UNL1        0.0465
     34 H          -0.7222   -2.4126    2.0888 H       1  UNL1        0.0465
     35 H          -1.7573   -0.3503   -1.7380 H       1  UNL1        0.0394
     36 H          -2.0911    1.8540   -1.2799 H       1  UNL1        0.0272
     37 H          -2.8363    1.4041    0.2158 H       1  UNL1        0.0272
     38 H          -4.0841    2.3161   -2.2496 H       1  UNL1        0.0265
     39 H          -4.7929    2.2059   -0.6815 H       1  UNL1        0.0265
     40 H          -5.4590    0.5540   -2.7252 H       1  UNL1        0.0265
     41 H          -5.5893    0.0627   -1.0743 H       1  UNL1        0.0265
     42 H          -4.1576   -1.5958   -1.7716 H       1  UNL1        0.0272
     43 H          -3.5442   -0.6733   -3.0892 H       1  UNL1        0.0272
     44 H           0.3006   -0.3180    0.0109 H       1  UNL1        0.0471
     45 H          -0.6561    1.0418    0.4897 H       1  UNL1        0.0471
     46 H           2.6448    1.9798    1.3845 H       1  UNL1        0.0683
     47 H           3.3164    3.4216   -0.4320 H       1  UNL1        0.1376
     48 H           4.0254    2.5537   -2.4666 H       1  UNL1        0.4542
@<TRIPOS>UNITY_ATOM_ATTR
24 1
charge 1
@<TRIPOS>BOND
     1     1     2    1
     2     2     3   ar
     3     2    24   ar
     4     3     4   ar
     5     4     5    1
     6     4    22   ar
     7     5     6   ar
     8     5     9   ar
     9     6     7   ar
    10     7     8   ar
    11     8     9   ar
    12     9    10    1
    13    10    11    1
    14    10    21    1
    15    11    12    1
    16    12    13    1
    17    13    14   am
    18    13    21    1
    19    14    15    2
    20    14    16    1
    21    16    17    1
    22    16    20    1
    23    17    18    1
    24    18    19    1
    25    19    20    1
    26    22    23   ar
    27    23    24   ar
    28     1    25    1
    29     1    26    1
    30     3    27    1
    31     6    28    1
    32     7    29    1
    33    10    30    1
    34    11    31    1
    35    11    32    1
    36    12    33    1
    37    12    34    1
    38    16    35    1
    39    17    36    1
    40    17    37    1
    41    18    38    1
    42    18    39    1
    43    19    40    1
    44    19    41    1
    45    20    42    1
    46    20    43    1
    47    21    44    1
    48    21    45    1
    49    22    46    1
    50    23    47    1
    51    24    48    1
@<TRIPOS>MOLECULE
../data/bude_mols_rdkit_confs_charged/molecule_6.pdb
 48 51 0 0 0
SMALL
GASTEIGER

@<TRIPOS>ATOM
      1  N1         4.2370   -3.2940   -0.4180 N.pl3   1  UNL1       -0.3056
      2  C1         4.5140   -1.9260   -0.1810 C.ar    1  UNL1        0.2672
      3  C2         3.4880   -1.1040    0.2900 C.ar    1  UNL1        0.0337
      4  C3         3.7530    0.1980    0.5130 C.ar    1  UNL1       -0.0015
      5  C4         2.8040    1.2250    0.9390 C.ar    1  UNL1        0.0233
      6  C5         3.0580    2.2060    1.9030 C.ar    1  UNL1        0.0303
      7  N2         2.0060    3.0260    1.9340 N.ar    1  UNL1       -0.2839
      8  N3         1.1260    2.6150    1.0590 N.ar    1  UNL1       -0.1779
      9  C6         1.5610    1.5160    0.4240 C.ar    1  UNL1        0.0751
     10  C7         0.8300    0.6740   -0.5250 C.3     1  UNL1        0.0208
     11  C8        -0.0510    1.4640   -1.5000 C.3     1  UNL1       -0.0274
     12  C9        -0.8570    0.2180   -2.0030 C.3     1  UNL1        0.0153
     13  N4        -1.4360   -0.0360   -0.6490 N.am    1  UNL1       -0.3006
     14  C10       -2.8160   -0.1810   -0.5010 C.2     1  UNL1        0.2187
     15  O1        -3.5470   -0.2100   -1.5600 O.2     1  UNL1       -0.2753
     16  C11       -3.5680   -0.3030    0.7800 C.3     1  UNL1        0.0358
     17  C12       -4.6080    0.8220    0.8350 C.3     1  UNL1       -0.0419
     18  C13       -5.8090    0.3010    0.0540 C.3     1  UNL1       -0.0523
     19  C14       -5.7710   -1.1850    0.2140 C.3     1  UNL1       -0.0523
     20  C15       -4.4110   -1.5460    0.7740 C.3     1  UNL1       -0.0419
     21  C16       -0.3240   -0.0490    0.2630 C.3     1  UNL1        0.0230
     22  C17        5.0540    0.6640    0.2640 C.ar    1  UNL1        0.0100
     23  C18        6.0300   -0.1840   -0.1990 C.ar    1  UNL1        0.1716
     24  N5         5.7570   -1.4650   -0.4190 N.ar    1  UNL1       -0.1984
     25 H           3.3345   -3.6498   -0.2500 H       1  UNL1        0.1477
     26 H           4.9468   -3.8895   -0.7508 H       1  UNL1        0.1477
     27 H           2.5453   -1.4863    0.4638 H       1  UNL1        0.0704
     28 H           3.9065    2.2819    2.4855 H       1  UNL1        0.0830
     29 H           1.9085    3.8114    2.5195 H       1  UNL1        0.1882
     30 H           1.5846    0.0855   -1.0037 H       1  UNL1        0.0380
     31 H           0.5101    1.9389   -2.2775 H       1  UNL1        0.0287
     32 H          -0.6078    2.2893   -1.1079 H       1  UNL1        0.0287
     33 H          -0.2359   -0.5776   -2.3581 H       1  UNL1        0.0465
     34 H          -1.5169    0.3284   -2.8380 H       1  UNL1        0.0465
     35 H          -2.8575   -0.2915    1.5799 H       1  UNL1        0.0394
     36 H          -4.2227    1.7107    0.3804 H       1  UNL1        0.0272
     37 H          -4.8673    1.0755    1.8417 H       1  UNL1        0.0272
     38 H          -5.7288    0.5687   -0.9789 H       1  UNL1        0.0265
     39 H          -6.7277    0.7168    0.4118 H       1  UNL1        0.0265
     40 H          -5.9132   -1.6587   -0.7348 H       1  UNL1        0.0265
     41 H          -6.5492   -1.5141    0.8705 H       1  UNL1        0.0265
     42 H          -4.5161   -1.9186    1.7715 H       1  UNL1        0.0272
     43 H          -3.9514   -2.3045    0.1754 H       1  UNL1        0.0272
     44 H          -0.5626    0.4835    1.1599 H       1  UNL1        0.0471
     45 H          -0.0549   -1.0390    0.5670 H       1  UNL1        0.0471
     46 H           5.2798    1.6570    0.4312 H       1  UNL1        0.0683
     47 H           6.9806    0.1761   -0.3769 H       1  UNL1        0.1376
     48 H           6.4566   -2.0719   -0.7529 H       1  UNL1        0.4542
@<TRIPOS>UNITY_ATOM_ATTR
24 1
charge 1
@<TRIPOS>BOND
     1     1     2    1
     2     2     3   ar
     3     2    24   ar
     4     3     4   ar
     5     4     5    1
     6     4    22   ar
     7     5     6   ar
     8     5     9   ar
     9     6     7   ar
    10     7     8   ar
    11     8     9   ar
    12     9    10    1
    13    10    11    1
    14    10    21    1
    15    11    12    1
    16    12    13    1
    17    13    14   am
    18    13    21    1
    19    14    15    2
    20    14    16    1
    21    16    17    1
    22    16    20    1
    23    17    18    1
    24    18    19    1
    25    19    20    1
    26    22    23   ar
    27    23    24   ar
    28     1    25    1
    29     1    26    1
    30     3    27    1
    31     6    28    1
    32     7    29    1
    33    10    30    1
    34    11    31    1
    35    11    32    1
    36    12    33    1
    37    12    34    1
    38    16    35    1
    39    17    36    1
    40    17    37    1
    41    18    38    1
    42    18    39    1
    43    19    40    1
    44    19    41    1
    45    20    42    1
    46    20    43    1
    47    21    44    1
    48    21    45    1
    49    22    46    1
    50    23    47    1
    51    24    48    1
@<TRIPOS>MOLECULE
../data/bude_mols_rdkit_confs_charged/molecule_6.pdb
 48 51 0 0 0
SMALL
GASTEIGER

@<TRIPOS>ATOM
      1  N1         5.4920    2.2780   -0.2020 N.pl3   1  UNL1       -0.3056
      2  C1         5.2610    0.8850   -0.2400 C.ar    1  UNL1        0.2672
      3  C2         4.0020    0.4310    0.1360 C.ar    1  UNL1        0.0337
      4  C3         3.7430   -0.9210    0.0800 C.ar    1  UNL1       -0.0015
      5  C4         2.4750   -1.4970    0.5300 C.ar    1  UNL1        0.0233
      6  C5         2.3430   -2.6270    1.3470 C.ar    1  UNL1        0.0303
      7  N2         1.0520   -2.8010    1.6480 N.ar    1  UNL1       -0.2839
      8  N3         0.3660   -1.8410    1.0540 N.ar    1  UNL1       -0.1779
      9  C6         1.2010   -1.0110    0.3530 C.ar    1  UNL1        0.0751
     10  C7         0.7500    0.0470   -0.5900 C.3     1  UNL1        0.0208
     11  C8         0.4770    1.3810    0.0120 C.3     1  UNL1       -0.0274
     12  C9        -0.5880    1.9120   -1.0110 C.3     1  UNL1        0.0153
     13  N4        -1.5390    0.8160   -0.6140 N.am    1  UNL1       -0.3006
     14  C10       -2.7990    1.1220   -0.1280 C.2     1  UNL1        0.2187
     15  O1        -3.1530    2.3770   -0.1710 O.2     1  UNL1       -0.2753
     16  C11       -3.7970    0.2150    0.4390 C.3     1  UNL1        0.0358
     17  C12       -4.2990   -0.8870   -0.3960 C.3     1  UNL1       -0.0419
     18  C13       -5.7430   -0.5610   -0.7710 C.3     1  UNL1       -0.0523
     19  C14       -5.9210    0.8820   -0.3510 C.3     1  UNL1       -0.0523
     20  C15       -5.0440    0.9760    0.8490 C.3     1  UNL1       -0.0419
     21  C16       -0.7720   -0.3690   -0.8720 C.3     1  UNL1        0.0230
     22  C17        4.7270   -1.7640   -0.3460 C.ar    1  UNL1        0.0100
     23  C18        5.9700   -1.2710   -0.7150 C.ar    1  UNL1        0.1716
     24  N5         6.2150    0.0480   -0.6530 N.ar    1  UNL1       -0.1984
     25 H           4.7814    2.8866    0.1043 H       1  UNL1        0.1477
     26 H           6.3636    2.6403   -0.4819 H       1  UNL1        0.1477
     27 H           3.2759    1.0934    0.4508 H       1  UNL1        0.0704
     28 H           3.1183   -3.2290    1.6657 H       1  UNL1        0.0830
     29 H           0.6792   -3.5168    2.2117 H       1  UNL1        0.1882
     30 H           1.4904    0.1138   -1.3596 H       1  UNL1        0.0380
     31 H           1.3521    1.9963    0.0330 H       1  UNL1        0.0287
     32 H           0.1591    1.3638    1.0335 H       1  UNL1        0.0287
     33 H          -0.2715    1.8640   -2.0320 H       1  UNL1        0.0465
     34 H          -0.9027    2.9341   -0.9757 H       1  UNL1        0.0465
     35 H          -3.2353   -0.2199    1.2391 H       1  UNL1        0.0394
     36 H          -4.2627   -1.8055    0.1516 H       1  UNL1        0.0272
     37 H          -3.6981   -0.9968   -1.2745 H       1  UNL1        0.0272
     38 H          -6.4242   -1.1960   -0.2441 H       1  UNL1        0.0265
     39 H          -5.9392   -0.7112   -1.8121 H       1  UNL1        0.0265
     40 H          -6.9408    1.0899   -0.1025 H       1  UNL1        0.0265
     41 H          -5.6721    1.5846   -1.1186 H       1  UNL1        0.0265
     42 H          -4.8125    1.9961    1.0742 H       1  UNL1        0.0272
     43 H          -5.5020    0.5798    1.7312 H       1  UNL1        0.0272
     44 H          -1.0723   -1.1604   -0.2175 H       1  UNL1        0.0471
     45 H          -0.9108   -0.7260   -1.8711 H       1  UNL1        0.0471
     46 H           4.5450   -2.7787   -0.3943 H       1  UNL1        0.0683
     47 H           6.7066   -1.9179   -1.0372 H       1  UNL1        0.1376
     48 H           7.0982    0.3974   -0.9122 H       1  UNL1        0.4542
@<TRIPOS>UNITY_ATOM_ATTR
24 1
charge 1
@<TRIPOS>BOND
     1     1     2    1
     2     2     3   ar
     3     2    24   ar
     4     3     4   ar
     5     4     5    1
     6     4    22   ar
     7     5     6   ar
     8     5     9   ar
     9     6     7   ar
    10     7     8   ar
    11     8     9   ar
    12     9    10    1
    13    10    11    1
    14    10    21    1
    15    11    12    1
    16    12    13    1
    17    13    14   am
    18    13    21    1
    19    14    15    2
    20    14    16    1
    21    16    17    1
    22    16    20    1
    23    17    18    1
    24    18    19    1
    25    19    20    1
    26    22    23   ar
    27    23    24   ar
    28     1    25    1
    29     1    26    1
    30     3    27    1
    31     6    28    1
    32     7    29    1
    33    10    30    1
    34    11    31    1
    35    11    32    1
    36    12    33    1
    37    12    34    1
    38    16    35    1
    39    17    36    1
    40    17    37    1
    41    18    38    1
    42    18    39    1
    43    19    40    1
    44    19    41    1
    45    20    42    1
    46    20    43    1
    47    21    44    1
    48    21    45    1
    49    22    46    1
    50    23    47    1
    51    24    48    1
@<TRIPOS>MOLECULE
../data/bude_mols_rdkit_confs_charged/molecule_6.pdb
 48 51 0 0 0
SMALL
GASTEIGER

@<TRIPOS>ATOM
      1  N1        -3.1270   -0.1860   -3.6810 N.pl3   1  UNL1       -0.3056
      2  C1        -3.6830   -0.4380   -2.4050 C.ar    1  UNL1        0.2672
      3  C2        -3.2320    0.2500   -1.2630 C.ar    1  UNL1        0.0337
      4  C3        -3.7750    0.0010   -0.0330 C.ar    1  UNL1       -0.0015
      5  C4        -3.3120    0.6820    1.1880 C.ar    1  UNL1        0.0233
      6  C5        -4.1220    1.4580    1.9890 C.ar    1  UNL1        0.0303
      7  N2        -3.3970    1.9390    2.9880 N.ar    1  UNL1       -0.2839
      8  N3        -2.1670    1.4960    2.8470 N.ar    1  UNL1       -0.1779
      9  C6        -2.0670    0.7170    1.7510 C.ar    1  UNL1        0.0751
     10  C7        -0.8470    0.0510    1.3110 C.3     1  UNL1        0.0208
     11  C8         0.1990    0.2060    2.4290 C.3     1  UNL1       -0.0274
     12  C9         1.4440   -0.2490    1.7000 C.3     1  UNL1        0.0153
     13  N4         1.3040    0.4620    0.4470 N.am    1  UNL1       -0.3006
     14  C10        2.3760    0.8680   -0.3810 C.2     1  UNL1        0.2187
     15  O1         2.1670    1.4880   -1.4600 O.2     1  UNL1       -0.2753
     16  C11        3.7840    0.5730   -0.0020 C.3     1  UNL1        0.0358
     17  C12        4.0170   -0.9120    0.1420 C.3     1  UNL1       -0.0419
     18  C13        5.2230   -1.2710   -0.6800 C.3     1  UNL1       -0.0523
     19  C14        5.9030    0.0670   -0.8710 C.3     1  UNL1       -0.0523
     20  C15        4.7310    0.9870   -1.1030 C.3     1  UNL1       -0.0419
     21  C16       -0.1250    0.6860    0.1770 C.3     1  UNL1        0.0230
     22  C17       -4.7760   -0.9450    0.0420 C.ar    1  UNL1        0.0100
     23  C18       -5.2100   -1.6180   -1.1070 C.ar    1  UNL1        0.1716
     24  N5        -4.6620   -1.3580   -2.3060 N.ar    1  UNL1       -0.1984
     25 H          -2.4102    0.4812   -3.7826 H       1  UNL1        0.1477
     26 H          -3.4568   -0.6778   -4.4675 H       1  UNL1        0.1477
     27 H          -2.4812    0.9520   -1.3552 H       1  UNL1        0.0704
     28 H          -5.1271    1.6350    1.8358 H       1  UNL1        0.0830
     29 H          -3.7220    2.5251    3.7092 H       1  UNL1        0.1882
     30 H          -1.1751   -0.9323    1.0458 H       1  UNL1        0.0380
     31 H          -0.0210   -0.4223    3.2667 H       1  UNL1        0.0287
     32 H           0.2609    1.1872    2.8513 H       1  UNL1        0.0287
     33 H           1.4480   -1.3088    1.5524 H       1  UNL1        0.0465
     34 H           2.3577   -0.0510    2.2204 H       1  UNL1        0.0465
     35 H           3.9541    1.0996    0.9138 H       1  UNL1        0.0394
     36 H           3.1625   -1.4503   -0.2115 H       1  UNL1        0.0272
     37 H           4.1759   -1.1670    1.1689 H       1  UNL1        0.0272
     38 H           4.9374   -1.6966   -1.6192 H       1  UNL1        0.0265
     39 H           5.8499   -2.0046   -0.2177 H       1  UNL1        0.0265
     40 H           6.5585    0.0523   -1.7166 H       1  UNL1        0.0265
     41 H           6.5214    0.3570   -0.0474 H       1  UNL1        0.0265
     42 H           5.0170    2.0134   -1.0043 H       1  UNL1        0.0272
     43 H           4.3110    0.9116   -2.0842 H       1  UNL1        0.0272
     44 H          -0.3385    1.7337    0.1373 H       1  UNL1        0.0471
     45 H          -0.4211    0.2720   -0.7642 H       1  UNL1        0.0471
     46 H          -5.2094   -1.1590    0.9538 H       1  UNL1        0.0683
     47 H          -5.9603   -2.3226   -1.0318 H       1  UNL1        0.1376
     48 H          -4.9741   -1.8371   -3.1074 H       1  UNL1        0.4542
@<TRIPOS>UNITY_ATOM_ATTR
24 1
charge 1
@<TRIPOS>BOND
     1     1     2    1
     2     2     3   ar
     3     2    24   ar
     4     3     4   ar
     5     4     5    1
     6     4    22   ar
     7     5     6   ar
     8     5     9   ar
     9     6     7   ar
    10     7     8   ar
    11     8     9   ar
    12     9    10    1
    13    10    11    1
    14    10    21    1
    15    11    12    1
    16    12    13    1
    17    13    14   am
    18    13    21    1
    19    14    15    2
    20    14    16    1
    21    16    17    1
    22    16    20    1
    23    17    18    1
    24    18    19    1
    25    19    20    1
    26    22    23   ar
    27    23    24   ar
    28     1    25    1
    29     1    26    1
    30     3    27    1
    31     6    28    1
    32     7    29    1
    33    10    30    1
    34    11    31    1
    35    11    32    1
    36    12    33    1
    37    12    34    1
    38    16    35    1
    39    17    36    1
    40    17    37    1
    41    18    38    1
    42    18    39    1
    43    19    40    1
    44    19    41    1
    45    20    42    1
    46    20    43    1
    47    21    44    1
    48    21    45    1
    49    22    46    1
    50    23    47    1
    51    24    48    1
@<TRIPOS>MOLECULE
../data/bude_mols_rdkit_confs_charged/molecule_6.pdb
 48 51 0 0 0
SMALL
GASTEIGER

@<TRIPOS>ATOM
      1  N1         6.6770    0.6860   -1.0710 N.pl3   1  UNL1       -0.3056
      2  C1         5.6510   -0.2080   -0.6570 C.ar    1  UNL1        0.2672
      3  C2         4.5870    0.2570    0.0600 C.ar    1  UNL1        0.0337
      4  C3         3.5240   -0.5760    0.4930 C.ar    1  UNL1       -0.0015
      5  C4         2.4390    0.0760    1.2250 C.ar    1  UNL1        0.0233
      6  C5         2.4010    0.5450    2.5020 C.ar    1  UNL1        0.0303
      7  N2         1.2720    1.2200    2.6820 N.ar    1  UNL1       -0.2839
      8  N3         0.5910    1.1820    1.5380 N.ar    1  UNL1       -0.1779
      9  C6         1.2410    0.4920    0.5850 C.ar    1  UNL1        0.0751
     10  C7         0.8380    0.0120   -0.7400 C.3     1  UNL1        0.0208
     11  C8         0.4750    1.0820   -1.7660 C.3     1  UNL1       -0.0274
     12  C9        -0.5740    1.8440   -1.0300 C.3     1  UNL1        0.0153
     13  N4        -1.4760    0.6800   -0.7370 N.am    1  UNL1       -0.3006
     14  C10       -2.8570    0.8660   -0.7850 C.2     1  UNL1        0.2187
     15  O1        -3.1630    2.1370   -1.0840 O.2     1  UNL1       -0.2753
     16  C11       -4.0010    0.0460   -0.6080 C.3     1  UNL1        0.0358
     17  C12       -4.0040   -1.0990    0.3600 C.3     1  UNL1       -0.0419
     18  C13       -5.5020   -1.4920    0.3540 C.3     1  UNL1       -0.0523
     19  C14       -6.1560   -0.1230    0.4370 C.3     1  UNL1       -0.0523
     20  C15       -5.1340    0.9030    0.0420 C.3     1  UNL1       -0.0419
     21  C16       -0.6550   -0.4830   -0.4740 C.3     1  UNL1        0.0230
     22  C17        3.6180   -1.8880    0.1540 C.ar    1  UNL1        0.0100
     23  C18        4.7020   -2.3140   -0.5670 C.ar    1  UNL1        0.1716
     24  N5         5.7110   -1.5240   -0.9790 N.ar    1  UNL1       -0.1984
     25 H           6.6247    1.6397   -0.8324 H       1  UNL1        0.1477
     26 H           7.4394    0.3510   -1.5961 H       1  UNL1        0.1477
     27 H           4.5544    1.2607    0.2980 H       1  UNL1        0.0704
     28 H           3.1321    0.3994    3.2156 H       1  UNL1        0.0830
     29 H           0.9891    1.6680    3.5118 H       1  UNL1        0.1882
     30 H           1.6279   -0.6192   -1.0902 H       1  UNL1        0.0380
     31 H           0.0874    0.6486   -2.6643 H       1  UNL1        0.0287
     32 H           1.3026    1.6767   -2.0922 H       1  UNL1        0.0287
     33 H          -1.0467    2.5842   -1.6413 H       1  UNL1        0.0465
     34 H          -0.2464    2.4189   -0.1891 H       1  UNL1        0.0465
     35 H          -4.0851   -0.3393   -1.6027 H       1  UNL1        0.0394
     36 H          -3.6831   -0.7909    1.3331 H       1  UNL1        0.0272
     37 H          -3.3392   -1.8962    0.1002 H       1  UNL1        0.0272
     38 H          -5.7529   -2.1001    1.1979 H       1  UNL1        0.0265
     39 H          -5.8033   -2.0764   -0.4902 H       1  UNL1        0.0265
     40 H          -6.4877    0.0611    1.4375 H       1  UNL1        0.0265
     41 H          -7.0028   -0.0750   -0.2153 H       1  UNL1        0.0265
     42 H          -5.5408    1.5986   -0.6619 H       1  UNL1        0.0272
     43 H          -4.7928    1.4944    0.8659 H       1  UNL1        0.0272
     44 H          -0.7711   -0.8064    0.5393 H       1  UNL1        0.0471
     45 H          -0.9224   -1.3167   -1.0891 H       1  UNL1        0.0471
     46 H           2.8826   -2.5549    0.4359 H       1  UNL1        0.0683
     47 H           4.7486   -3.3153   -0.8126 H       1  UNL1        0.1376
     48 H           6.4656   -1.8886   -1.4957 H       1  UNL1        0.4542
@<TRIPOS>UNITY_ATOM_ATTR
24 1
charge 1
@<TRIPOS>BOND
     1     1     2    1
     2     2     3   ar
     3     2    24   ar
     4     3     4   ar
     5     4     5    1
     6     4    22   ar
     7     5     6   ar
     8     5     9   ar
     9     6     7   ar
    10     7     8   ar
    11     8     9   ar
    12     9    10    1
    13    10    11    1
    14    10    21    1
    15    11    12    1
    16    12    13    1
    17    13    14   am
    18    13    21    1
    19    14    15    2
    20    14    16    1
    21    16    17    1
    22    16    20    1
    23    17    18    1
    24    18    19    1
    25    19    20    1
    26    22    23   ar
    27    23    24   ar
    28     1    25    1
    29     1    26    1
    30     3    27    1
    31     6    28    1
    32     7    29    1
    33    10    30    1
    34    11    31    1
    35    11    32    1
    36    12    33    1
    37    12    34    1
    38    16    35    1
    39    17    36    1
    40    17    37    1
    41    18    38    1
    42    18    39    1
    43    19    40    1
    44    19    41    1
    45    20    42    1
    46    20    43    1
    47    21    44    1
    48    21    45    1
    49    22    46    1
    50    23    47    1
    51    24    48    1
@<TRIPOS>MOLECULE
../data/bude_mols_rdkit_confs_charged/molecule_6.pdb
 48 51 0 0 0
SMALL
GASTEIGER

@<TRIPOS>ATOM
      1  N1         7.1720   -0.6560    0.2820 N.pl3   1  UNL1       -0.3056
      2  C1         5.9030   -0.2900   -0.2210 C.ar    1  UNL1        0.2672
      3  C2         4.7820   -0.7920    0.3850 C.ar    1  UNL1        0.0337
      4  C3         3.4680   -0.4770   -0.0550 C.ar    1  UNL1       -0.0015
      5  C4         2.3660   -1.0550    0.6330 C.ar    1  UNL1        0.0233
      6  C5         2.3330   -2.4340    0.9230 C.ar    1  UNL1        0.0303
      7  N2         1.2240   -2.7360    1.5870 N.ar    1  UNL1       -0.2839
      8  N3         0.5470   -1.6220    1.7360 N.ar    1  UNL1       -0.1779
      9  C6         1.2150   -0.5670    1.1630 C.ar    1  UNL1        0.0751
     10  C7         0.7610    0.8150    1.1160 C.3     1  UNL1        0.0208
     11  C8        -0.3300    1.1800    2.0780 C.3     1  UNL1       -0.0274
     12  C9        -1.5470    0.5370    1.4800 C.3     1  UNL1        0.0153
     13  N4        -1.3920    0.8690    0.0900 N.am    1  UNL1       -0.3006
     14  C10       -2.4540    1.0250   -0.8230 C.2     1  UNL1        0.2187
     15  O1        -2.1600    1.3320   -2.0280 O.2     1  UNL1       -0.2753
     16  C11       -3.8810    0.8470   -0.4410 C.3     1  UNL1        0.0358
     17  C12       -4.1910   -0.5540    0.0210 C.3     1  UNL1       -0.0419
     18  C13       -5.6890   -0.6460   -0.1630 C.3     1  UNL1       -0.0523
     19  C14       -6.0490    0.3610   -1.2150 C.3     1  UNL1       -0.0523
     20  C15       -4.7690    1.0070   -1.6550 C.3     1  UNL1       -0.0419
     21  C16       -0.0030    1.0020   -0.2070 C.3     1  UNL1        0.0230
     22  C17        3.4190    0.3620   -1.1260 C.ar    1  UNL1        0.0100
     23  C18        4.5930    0.8500   -1.7130 C.ar    1  UNL1        0.1716
     24  N5         5.8170    0.5350   -1.2750 N.ar    1  UNL1       -0.1984
     25 H           7.2390   -1.2614    1.0555 H       1  UNL1        0.1477
     26 H           7.9890   -0.3056   -0.1411 H       1  UNL1        0.1477
     27 H           4.8961   -1.4239    1.1929 H       1  UNL1        0.0704
     28 H           3.0652   -3.1110    0.6575 H       1  UNL1        0.0830
     29 H           0.9592   -3.6284    1.9075 H       1  UNL1        0.1882
     30 H           1.6488    1.3842    1.2969 H       1  UNL1        0.0380
     31 H          -0.4481    2.2417    2.1387 H       1  UNL1        0.0287
     32 H          -0.1329    0.8541    3.0779 H       1  UNL1        0.0287
     33 H          -2.4468    0.9525    1.8832 H       1  UNL1        0.0465
     34 H          -1.6250   -0.5127    1.6720 H       1  UNL1        0.0465
     35 H          -4.0515    1.5685    0.3306 H       1  UNL1        0.0394
     36 H          -3.9200   -0.6899    1.0472 H       1  UNL1        0.0272
     37 H          -3.6520   -1.3056   -0.5170 H       1  UNL1        0.0272
     38 H          -6.1893   -0.4174    0.7548 H       1  UNL1        0.0265
     39 H          -5.9844   -1.6326   -0.4532 H       1  UNL1        0.0265
     40 H          -6.7119    1.0964   -0.8091 H       1  UNL1        0.0265
     41 H          -6.5453   -0.1068   -2.0394 H       1  UNL1        0.0265
     42 H          -4.3554    0.5046   -2.5044 H       1  UNL1        0.0272
     43 H          -4.8906    2.0251   -1.9608 H       1  UNL1        0.0272
     44 H           0.2951    0.2544   -0.9121 H       1  UNL1        0.0471
     45 H           0.2054    1.9600   -0.6357 H       1  UNL1        0.0471
     46 H           2.5034    0.6424   -1.5108 H       1  UNL1        0.0683
     47 H           4.5098    1.4837   -2.5232 H       1  UNL1        0.1376
     48 H           6.6237    0.8949   -1.7096 H       1  UNL1        0.4542
@<TRIPOS>UNITY_ATOM_ATTR
24 1
charge 1
@<TRIPOS>BOND
     1     1     2    1
     2     2     3   ar
     3     2    24   ar
     4     3     4   ar
     5     4     5    1
     6     4    22   ar
     7     5     6   ar
     8     5     9   ar
     9     6     7   ar
    10     7     8   ar
    11     8     9   ar
    12     9    10    1
    13    10    11    1
    14    10    21    1
    15    11    12    1
    16    12    13    1
    17    13    14   am
    18    13    21    1
    19    14    15    2
    20    14    16    1
    21    16    17    1
    22    16    20    1
    23    17    18    1
    24    18    19    1
    25    19    20    1
    26    22    23   ar
    27    23    24   ar
    28     1    25    1
    29     1    26    1
    30     3    27    1
    31     6    28    1
    32     7    29    1
    33    10    30    1
    34    11    31    1
    35    11    32    1
    36    12    33    1
    37    12    34    1
    38    16    35    1
    39    17    36    1
    40    17    37    1
    41    18    38    1
    42    18    39    1
    43    19    40    1
    44    19    41    1
    45    20    42    1
    46    20    43    1
    47    21    44    1
    48    21    45    1
    49    22    46    1
    50    23    47    1
    51    24    48    1
@<TRIPOS>MOLECULE
../data/bude_mols_rdkit_confs_charged/molecule_6.pdb
 48 51 0 0 0
SMALL
GASTEIGER

@<TRIPOS>ATOM
      1  N1        -3.7500    2.8280    0.8300 N.pl3   1  UNL1       -0.3056
      2  C1        -3.2210    1.5900    1.3360 C.ar    1  UNL1        0.2672
      3  C2        -3.0040    0.5240    0.5020 C.ar    1  UNL1        0.0337
      4  C3        -2.5000   -0.6470    0.9980 C.ar    1  UNL1       -0.0015
      5  C4        -2.2320   -1.8320    0.1700 C.ar    1  UNL1        0.0233
      6  C5        -2.6680   -3.0910    0.5370 C.ar    1  UNL1        0.0303
      7  N2        -2.2600   -3.9220   -0.4310 N.ar    1  UNL1       -0.2839
      8  N3        -1.6120   -3.2450   -1.3470 N.ar    1  UNL1       -0.1779
      9  C6        -1.5640   -1.9340   -1.0220 C.ar    1  UNL1        0.0751
     10  C7        -0.9410   -0.8270   -1.7560 C.3     1  UNL1        0.0208
     11  C8        -0.1830   -1.3370   -2.9900 C.3     1  UNL1       -0.0274
     12  C9         0.5750   -0.0440   -3.3230 C.3     1  UNL1        0.0153
     13  N4         1.1760    0.1870   -1.9840 N.am    1  UNL1       -0.3006
     14  C10        2.4900    0.6670   -1.8360 C.2     1  UNL1        0.2187
     15  O1         3.1210    0.9120   -2.9330 O.2     1  UNL1       -0.2753
     16  C11        3.2400    0.9240   -0.6170 C.3     1  UNL1        0.0358
     17  C12        3.6490   -0.2790    0.1840 C.3     1  UNL1       -0.0419
     18  C13        3.9980    0.2900    1.5540 C.3     1  UNL1       -0.0523
     19  C14        3.5730    1.7630    1.5180 C.3     1  UNL1       -0.0523
     20  C15        2.4660    1.7000    0.4470 C.3     1  UNL1       -0.0419
     21  C16        0.1880   -0.1480   -0.9930 C.3     1  UNL1        0.0230
     22  C17       -2.2170   -0.7210    2.3590 C.ar    1  UNL1        0.0100
     23  C18       -2.4530    0.3690    3.1370 C.ar    1  UNL1        0.1716
     24  N5        -2.9540    1.5280    2.6360 N.ar    1  UNL1       -0.1984
     25 H          -3.9621    2.9180   -0.1272 H       1  UNL1        0.1477
     26 H          -3.9000    3.5854    1.4408 H       1  UNL1        0.1477
     27 H          -3.2216    0.6051   -0.5035 H       1  UNL1        0.0704
     28 H          -3.2002   -3.3404    1.3852 H       1  UNL1        0.0830
     29 H          -2.4221   -4.8928   -0.4512 H       1  UNL1        0.1882
     30 H          -1.7655   -0.1753   -1.9572 H       1  UNL1        0.0380
     31 H          -0.8436   -1.6340   -3.7776 H       1  UNL1        0.0287
     32 H           0.4182   -2.2101   -2.8447 H       1  UNL1        0.0287
     33 H          -0.0821    0.7482   -3.6155 H       1  UNL1        0.0465
     34 H           1.2588   -0.0962   -4.1443 H       1  UNL1        0.0465
     35 H           4.0694    1.4432   -1.0499 H       1  UNL1        0.0394
     36 H           4.4985   -0.7580   -0.2563 H       1  UNL1        0.0272
     37 H           2.8810   -1.0225    0.2309 H       1  UNL1        0.0272
     38 H           5.0499    0.2104    1.7331 H       1  UNL1        0.0265
     39 H           3.5025   -0.2428    2.3385 H       1  UNL1        0.0265
     40 H           4.3783    2.4008    1.2188 H       1  UNL1        0.0265
     41 H           3.2641    2.1647    2.4604 H       1  UNL1        0.0265
     42 H           1.6025    1.1681    0.7880 H       1  UNL1        0.0272
     43 H           2.0587    2.6400    0.1380 H       1  UNL1        0.0272
     44 H           0.6004   -0.8143   -0.2644 H       1  UNL1        0.0471
     45 H          -0.1543    0.7179   -0.4658 H       1  UNL1        0.0471
     46 H          -1.8351   -1.5872    2.7700 H       1  UNL1        0.0683
     47 H          -2.2436    0.3136    4.1460 H       1  UNL1        0.1376
     48 H          -3.1152    2.3028    3.2217 H       1  UNL1        0.4542
@<TRIPOS>UNITY_ATOM_ATTR
24 1
charge 1
@<TRIPOS>BOND
     1     1     2    1
     2     2     3   ar
     3     2    24   ar
     4     3     4   ar
     5     4     5    1
     6     4    22   ar
     7     5     6   ar
     8     5     9   ar
     9     6     7   ar
    10     7     8   ar
    11     8     9   ar
    12     9    10    1
    13    10    11    1
    14    10    21    1
    15    11    12    1
    16    12    13    1
    17    13    14   am
    18    13    21    1
    19    14    15    2
    20    14    16    1
    21    16    17    1
    22    16    20    1
    23    17    18    1
    24    18    19    1
    25    19    20    1
    26    22    23   ar
    27    23    24   ar
    28     1    25    1
    29     1    26    1
    30     3    27    1
    31     6    28    1
    32     7    29    1
    33    10    30    1
    34    11    31    1
    35    11    32    1
    36    12    33    1
    37    12    34    1
    38    16    35    1
    39    17    36    1
    40    17    37    1
    41    18    38    1
    42    18    39    1
    43    19    40    1
    44    19    41    1
    45    20    42    1
    46    20    43    1
    47    21    44    1
    48    21    45    1
    49    22    46    1
    50    23    47    1
    51    24    48    1
@<TRIPOS>MOLECULE
../data/bude_mols_rdkit_confs_charged/molecule_6.pdb
 48 51 0 0 0
SMALL
GASTEIGER

@<TRIPOS>ATOM
      1  N1         6.9590    0.3780   -0.3480 N.pl3   1  UNL1       -0.3056
      2  C1         5.8320   -0.2780    0.1970 C.ar    1  UNL1        0.2672
      3  C2         4.6330    0.3820    0.3450 C.ar    1  UNL1        0.0337
      4  C3         3.5030   -0.2470    0.8650 C.ar    1  UNL1       -0.0015
      5  C4         2.2700    0.5190    0.9200 C.ar    1  UNL1        0.0233
      6  C5         2.1380    1.7760    1.4910 C.ar    1  UNL1        0.0303
      7  N2         0.9070    2.2200    1.2810 N.ar    1  UNL1       -0.2839
      8  N3         0.2640    1.3150    0.6140 N.ar    1  UNL1       -0.1779
      9  C6         1.0350    0.2260    0.3510 C.ar    1  UNL1        0.0751
     10  C7         0.6380   -1.0440   -0.2340 C.3     1  UNL1        0.0208
     11  C8         0.4840   -0.9800   -1.7710 C.3     1  UNL1       -0.0274
     12  C9        -0.3050    0.2900   -1.8550 C.3     1  UNL1        0.0153
     13  N4        -1.4310   -0.0970   -0.9780 N.am    1  UNL1       -0.3006
     14  C10       -2.7180    0.4460   -1.1360 C.2     1  UNL1        0.2187
     15  O1        -2.8070    1.4180   -2.0020 O.2     1  UNL1       -0.2753
     16  C11       -3.9790    0.0900   -0.4930 C.3     1  UNL1        0.0358
     17  C12       -4.0240    0.1960    0.9900 C.3     1  UNL1       -0.0419
     18  C13       -5.5370    0.1390    1.2890 C.3     1  UNL1       -0.0523
     19  C14       -6.1920    0.7330    0.0680 C.3     1  UNL1       -0.0523
     20  C15       -5.1280    0.9370   -0.9700 C.3     1  UNL1       -0.0419
     21  C16       -0.9660   -1.0640   -0.0180 C.3     1  UNL1        0.0230
     22  C17        3.6450   -1.5410    1.2170 C.ar    1  UNL1        0.0100
     23  C18        4.8620   -2.1970    1.0610 C.ar    1  UNL1        0.1716
     24  N5         5.9280   -1.5720    0.5620 N.ar    1  UNL1       -0.1984
     25 H           6.8962    1.3230   -0.6168 H       1  UNL1        0.1477
     26 H           7.8068   -0.1101   -0.4588 H       1  UNL1        0.1477
     27 H           4.5688    1.3725    0.0624 H       1  UNL1        0.0704
     28 H           2.8794    2.2841    1.9981 H       1  UNL1        0.0830
     29 H           0.5450    3.0855    1.5795 H       1  UNL1        0.1882
     30 H           1.3102   -1.7863    0.1428 H       1  UNL1        0.0380
     31 H          -0.0566   -1.8182   -2.1584 H       1  UNL1        0.0287
     32 H           1.3941   -1.0028   -2.3332 H       1  UNL1        0.0287
     33 H          -0.6253    0.5009   -2.8539 H       1  UNL1        0.0465
     34 H           0.2168    1.1819   -1.5771 H       1  UNL1        0.0465
     35 H          -4.0614   -0.9392   -0.7738 H       1  UNL1        0.0394
     36 H          -3.5994    1.1197    1.3238 H       1  UNL1        0.0272
     37 H          -3.4640   -0.5682    1.4873 H       1  UNL1        0.0272
     38 H          -5.7712    0.7143    2.1602 H       1  UNL1        0.0265
     39 H          -5.8735   -0.8578    1.4839 H       1  UNL1        0.0265
     40 H          -6.6425    1.6711    0.3167 H       1  UNL1        0.0265
     41 H          -6.9546    0.0800   -0.3019 H       1  UNL1        0.0265
     42 H          -5.4674    0.6098   -1.9306 H       1  UNL1        0.0272
     43 H          -4.8586    1.9663   -1.0838 H       1  UNL1        0.0272
     44 H          -1.2241   -0.7721    0.9786 H       1  UNL1        0.0471
     45 H          -1.3986   -2.0336   -0.1509 H       1  UNL1        0.0471
     46 H           2.8386   -2.0526    1.6081 H       1  UNL1        0.0683
     47 H           4.9408   -3.1882    1.3374 H       1  UNL1        0.1376
     48 H           6.7811   -2.0528    0.4605 H       1  UNL1        0.4542
@<TRIPOS>UNITY_ATOM_ATTR
24 1
charge 1
@<TRIPOS>BOND
     1     1     2    1
     2     2     3   ar
     3     2    24   ar
     4     3     4   ar
     5     4     5    1
     6     4    22   ar
     7     5     6   ar
     8     5     9   ar
     9     6     7   ar
    10     7     8   ar
    11     8     9   ar
    12     9    10    1
    13    10    11    1
    14    10    21    1
    15    11    12    1
    16    12    13    1
    17    13    14   am
    18    13    21    1
    19    14    15    2
    20    14    16    1
    21    16    17    1
    22    16    20    1
    23    17    18    1
    24    18    19    1
    25    19    20    1
    26    22    23   ar
    27    23    24   ar
    28     1    25    1
    29     1    26    1
    30     3    27    1
    31     6    28    1
    32     7    29    1
    33    10    30    1
    34    11    31    1
    35    11    32    1
    36    12    33    1
    37    12    34    1
    38    16    35    1
    39    17    36    1
    40    17    37    1
    41    18    38    1
    42    18    39    1
    43    19    40    1
    44    19    41    1
    45    20    42    1
    46    20    43    1
    47    21    44    1
    48    21    45    1
    49    22    46    1
    50    23    47    1
    51    24    48    1
@<TRIPOS>MOLECULE
../data/bude_mols_rdkit_confs_charged/molecule_6.pdb
 48 51 0 0 0
SMALL
GASTEIGER

@<TRIPOS>ATOM
      1  N1         7.1040   -1.2510    0.3690 N.pl3   1  UNL1       -0.3056
      2  C1         5.9590   -0.5100   -0.0080 C.ar    1  UNL1        0.2672
      3  C2         4.9020   -0.2840    0.8450 C.ar    1  UNL1        0.0337
      4  C3         3.7940    0.4060    0.5140 C.ar    1  UNL1       -0.0015
      5  C4         2.6420    0.8460    1.2460 C.ar    1  UNL1        0.0233
      6  C5         2.6380    1.8440    2.2290 C.ar    1  UNL1        0.0303
      7  N2         1.3770    2.1790    2.5240 N.ar    1  UNL1       -0.2839
      8  N3         0.5620    1.4240    1.7600 N.ar    1  UNL1       -0.1779
      9  C6         1.3150    0.6030    0.9780 C.ar    1  UNL1        0.0751
     10  C7         0.8350   -0.5650    0.1520 C.3     1  UNL1        0.0208
     11  C8         0.2320   -0.1620   -1.1430 C.3     1  UNL1       -0.0274
     12  C9        -1.2240    0.0270   -1.0160 C.3     1  UNL1        0.0153
     13  N4        -1.6050   -0.7410    0.1550 N.am    1  UNL1       -0.3006
     14  C10       -2.9650   -1.1110    0.4000 C.2     1  UNL1        0.2187
     15  O1        -3.2490   -1.7860    1.4130 O.2     1  UNL1       -0.2753
     16  C11       -4.0350   -0.6950   -0.5370 C.3     1  UNL1        0.0358
     17  C12       -4.3430    0.7790   -0.4450 C.3     1  UNL1       -0.0419
     18  C13       -5.7320    0.8880    0.1330 C.3     1  UNL1       -0.0523
     19  C14       -6.2480   -0.4980    0.3920 C.3     1  UNL1       -0.0523
     20  C15       -5.3130   -1.4300   -0.3510 C.3     1  UNL1       -0.0419
     21  C16       -0.4460   -1.0120    0.9350 C.3     1  UNL1        0.0230
     22  C17        3.7930    0.8970   -0.8220 C.ar    1  UNL1        0.0100
     23  C18        4.8500    0.6630   -1.6500 C.ar    1  UNL1        0.1716
     24  N5         5.9350   -0.0240   -1.2930 N.ar    1  UNL1       -0.1984
     25 H           7.1728   -1.6221    1.2783 H       1  UNL1        0.1477
     26 H           7.8319   -1.3954   -0.2780 H       1  UNL1        0.1477
     27 H           4.9629   -0.6687    1.8007 H       1  UNL1        0.0704
     28 H           3.4796    2.2577    2.6599 H       1  UNL1        0.0830
     29 H           1.0946    2.8555    3.1811 H       1  UNL1        0.1882
     30 H           1.6458   -1.2454   -0.0044 H       1  UNL1        0.0380
     31 H           0.4231   -0.9241   -1.8694 H       1  UNL1        0.0287
     32 H           0.6693    0.7662   -1.4466 H       1  UNL1        0.0287
     33 H          -1.7276   -0.3399   -1.8859 H       1  UNL1        0.0465
     34 H          -1.4871    1.0598   -0.9207 H       1  UNL1        0.0465
     35 H          -3.6326   -0.9322   -1.4996 H       1  UNL1        0.0394
     36 H          -4.3104    1.2253   -1.4169 H       1  UNL1        0.0272
     37 H          -3.6272    1.2877    0.1664 H       1  UNL1        0.0272
     38 H          -6.3740    1.3887   -0.5613 H       1  UNL1        0.0265
     39 H          -5.7078    1.4475    1.0448 H       1  UNL1        0.0265
     40 H          -7.2469   -0.5992    0.0222 H       1  UNL1        0.0265
     41 H          -6.2763   -0.7193    1.4385 H       1  UNL1        0.0265
     42 H          -5.1471   -2.3189    0.2211 H       1  UNL1        0.0272
     43 H          -5.7292   -1.7220   -1.2925 H       1  UNL1        0.0272
     44 H          -0.5046   -0.4735    1.8578 H       1  UNL1        0.0471
     45 H          -0.3908   -2.0619    1.1340 H       1  UNL1        0.0471
     46 H           2.9834    1.4358   -1.1673 H       1  UNL1        0.0683
     47 H           4.8078    1.0399   -2.6098 H       1  UNL1        0.1376
     48 H           6.6807   -0.1754   -1.9177 H       1  UNL1        0.4542
@<TRIPOS>UNITY_ATOM_ATTR
24 1
charge 1
@<TRIPOS>BOND
     1     1     2    1
     2     2     3   ar
     3     2    24   ar
     4     3     4   ar
     5     4     5    1
     6     4    22   ar
     7     5     6   ar
     8     5     9   ar
     9     6     7   ar
    10     7     8   ar
    11     8     9   ar
    12     9    10    1
    13    10    11    1
    14    10    21    1
    15    11    12    1
    16    12    13    1
    17    13    14   am
    18    13    21    1
    19    14    15    2
    20    14    16    1
    21    16    17    1
    22    16    20    1
    23    17    18    1
    24    18    19    1
    25    19    20    1
    26    22    23   ar
    27    23    24   ar
    28     1    25    1
    29     1    26    1
    30     3    27    1
    31     6    28    1
    32     7    29    1
    33    10    30    1
    34    11    31    1
    35    11    32    1
    36    12    33    1
    37    12    34    1
    38    16    35    1
    39    17    36    1
    40    17    37    1
    41    18    38    1
    42    18    39    1
    43    19    40    1
    44    19    41    1
    45    20    42    1
    46    20    43    1
    47    21    44    1
    48    21    45    1
    49    22    46    1
    50    23    47    1
    51    24    48    1
@<TRIPOS>MOLECULE
../data/bude_mols_rdkit_confs_charged/molecule_6.pdb
 48 51 0 0 0
SMALL
GASTEIGER

@<TRIPOS>ATOM
      1  N1         6.3850    2.4370    0.6050 N.pl3   1  UNL1       -0.3056
      2  C1         5.2680    1.8620   -0.0720 C.ar    1  UNL1        0.2672
      3  C2         4.6820    0.7080    0.4100 C.ar    1  UNL1        0.0337
      4  C3         3.5860    0.1260   -0.2270 C.ar    1  UNL1       -0.0015
      5  C4         3.0080   -1.1090    0.2840 C.ar    1  UNL1        0.0233
      6  C5         3.7250   -2.3090    0.4090 C.ar    1  UNL1        0.0303
      7  N2         2.9140   -3.2500    0.9000 N.ar    1  UNL1       -0.2839
      8  N3         1.7300   -2.6960    1.0860 N.ar    1  UNL1       -0.1779
      9  C6         1.7500   -1.3960    0.7210 C.ar    1  UNL1        0.0751
     10  C7         0.5830   -0.4940    0.8010 C.3     1  UNL1        0.0208
     11  C8        -0.4560   -1.1360    1.7230 C.3     1  UNL1       -0.0274
     12  C9        -1.4250   -1.7490    0.7380 C.3     1  UNL1        0.0153
     13  N4        -1.4570   -0.7190   -0.2570 N.am    1  UNL1       -0.3006
     14  C10       -2.5770   -0.0780   -0.7890 C.2     1  UNL1        0.2187
     15  O1        -2.4130    0.8050   -1.7050 O.2     1  UNL1       -0.2753
     16  C11       -3.9760   -0.3380   -0.3730 C.3     1  UNL1        0.0358
     17  C12       -4.8910    0.4610   -1.2740 C.3     1  UNL1       -0.0419
     18  C13       -6.0520    0.9260   -0.4440 C.3     1  UNL1       -0.0523
     19  C14       -5.6350    0.7650    0.9860 C.3     1  UNL1       -0.0523
     20  C15       -4.1870    0.3390    0.9720 C.3     1  UNL1       -0.0419
     21  C16       -0.0790   -0.4640   -0.5820 C.3     1  UNL1        0.0230
     22  C17        3.1150    0.7430   -1.3480 C.ar    1  UNL1        0.0100
     23  C18        3.7500    1.9060   -1.7830 C.ar    1  UNL1        0.1716
     24  N5         4.7990    2.4590   -1.1690 N.ar    1  UNL1       -0.1984
     25 H           6.7430    2.0086    1.4159 H       1  UNL1        0.1477
     26 H           6.7976    3.2621    0.2611 H       1  UNL1        0.1477
     27 H           5.0637    0.2662    1.2609 H       1  UNL1        0.0704
     28 H           4.7180   -2.4427    0.1616 H       1  UNL1        0.0830
     29 H           3.1551   -4.1857    1.0887 H       1  UNL1        0.1882
     30 H           0.8899    0.4736    1.1394 H       1  UNL1        0.0380
     31 H          -0.9376   -0.4020    2.3347 H       1  UNL1        0.0287
     32 H          -0.0403   -1.8420    2.4113 H       1  UNL1        0.0287
     33 H          -2.3884   -1.9077    1.1757 H       1  UNL1        0.0465
     34 H          -1.1460   -2.7162    0.3753 H       1  UNL1        0.0465
     35 H          -4.1594   -1.3921   -0.3806 H       1  UNL1        0.0394
     36 H          -5.2398   -0.1537   -2.0774 H       1  UNL1        0.0272
     37 H          -4.3701    1.2964   -1.6931 H       1  UNL1        0.0272
     38 H          -6.9163    0.3290   -0.6478 H       1  UNL1        0.0265
     39 H          -6.3063    1.9418   -0.6639 H       1  UNL1        0.0265
     40 H          -6.2343    0.0177    1.4627 H       1  UNL1        0.0265
     41 H          -5.7614    1.6787    1.5283 H       1  UNL1        0.0265
     42 H          -3.5458    1.1903    1.0669 H       1  UNL1        0.0272
     43 H          -3.9579   -0.3160    1.7865 H       1  UNL1        0.0272
     44 H           0.3178   -1.2259   -1.2200 H       1  UNL1        0.0471
     45 H           0.0772    0.4498   -1.1164 H       1  UNL1        0.0471
     46 H           2.3074    0.3583   -1.8626 H       1  UNL1        0.0683
     47 H           3.3869    2.3676   -2.6316 H       1  UNL1        0.1376
     48 H           5.2136    3.2821   -1.5153 H       1  UNL1        0.4542
@<TRIPOS>UNITY_ATOM_ATTR
24 1
charge 1
@<TRIPOS>BOND
     1     1     2    1
     2     2     3   ar
     3     2    24   ar
     4     3     4   ar
     5     4     5    1
     6     4    22   ar
     7     5     6   ar
     8     5     9   ar
     9     6     7   ar
    10     7     8   ar
    11     8     9   ar
    12     9    10    1
    13    10    11    1
    14    10    21    1
    15    11    12    1
    16    12    13    1
    17    13    14   am
    18    13    21    1
    19    14    15    2
    20    14    16    1
    21    16    17    1
    22    16    20    1
    23    17    18    1
    24    18    19    1
    25    19    20    1
    26    22    23   ar
    27    23    24   ar
    28     1    25    1
    29     1    26    1
    30     3    27    1
    31     6    28    1
    32     7    29    1
    33    10    30    1
    34    11    31    1
    35    11    32    1
    36    12    33    1
    37    12    34    1
    38    16    35    1
    39    17    36    1
    40    17    37    1
    41    18    38    1
    42    18    39    1
    43    19    40    1
    44    19    41    1
    45    20    42    1
    46    20    43    1
    47    21    44    1
    48    21    45    1
    49    22    46    1
    50    23    47    1
    51    24    48    1
@<TRIPOS>MOLECULE
../data/bude_mols_rdkit_confs_charged/molecule_6.pdb
 48 51 0 0 0
SMALL
GASTEIGER

@<TRIPOS>ATOM
      1  N1        -4.6560    2.5310    2.8020 N.pl3   1  UNL1       -0.3056
      2  C1        -4.2890    1.8580    1.6020 C.ar    1  UNL1        0.2672
      3  C2        -3.8400    0.5560    1.5640 C.ar    1  UNL1        0.0337
      4  C3        -3.4880   -0.0790    0.3770 C.ar    1  UNL1       -0.0015
      5  C4        -3.0250   -1.4700    0.3710 C.ar    1  UNL1        0.0233
      6  C5        -3.6530   -2.5480    0.9780 C.ar    1  UNL1        0.0303
      7  N2        -2.9520   -3.6610    0.7600 N.ar    1  UNL1       -0.2839
      8  N3        -1.9090   -3.3230    0.0400 N.ar    1  UNL1       -0.1779
      9  C6        -1.9090   -1.9840   -0.2260 C.ar    1  UNL1        0.0751
     10  C7        -0.8880   -1.2440   -1.0070 C.3     1  UNL1        0.0208
     11  C8         0.2380   -2.2430   -1.3200 C.3     1  UNL1       -0.0274
     12  C9         1.4220   -1.3190   -1.5260 C.3     1  UNL1        0.0153
     13  N4         1.2540   -0.3830   -0.4300 N.am    1  UNL1       -0.3006
     14  C10        2.2430    0.2740    0.3240 C.2     1  UNL1        0.2187
     15  O1         1.9780    1.0640    1.2530 O.2     1  UNL1       -0.2753
     16  C11        3.6760    0.0310    0.0170 C.3     1  UNL1        0.0358
     17  C12        4.5870    0.8120    0.9350 C.3     1  UNL1       -0.0419
     18  C13        5.5710    1.5550    0.0460 C.3     1  UNL1       -0.0523
     19  C14        5.4680    0.8080   -1.2890 C.3     1  UNL1       -0.0523
     20  C15        3.9530    0.6100   -1.3590 C.3     1  UNL1       -0.0419
     21  C16       -0.1770   -0.2060   -0.2030 C.3     1  UNL1        0.0230
     22  C17       -3.6060    0.6510   -0.7780 C.ar    1  UNL1        0.0100
     23  C18       -4.0660    1.9750   -0.7140 C.ar    1  UNL1        0.1716
     24  N5        -4.3970    2.5540    0.4540 N.ar    1  UNL1       -0.1984
     25 H          -4.5944    2.0643    3.6667 H       1  UNL1        0.1477
     26 H          -4.9714    3.4630    2.7670 H       1  UNL1        0.1477
     27 H          -3.7618    0.0318    2.4495 H       1  UNL1        0.0704
     28 H          -4.5312   -2.4961    1.5175 H       1  UNL1        0.0830
     29 H          -3.1750   -4.5653    1.0790 H       1  UNL1        0.1882
     30 H          -1.3923   -0.8044   -1.8421 H       1  UNL1        0.0380
     31 H           0.0247   -2.8063   -2.2043 H       1  UNL1        0.0287
     32 H           0.3893   -2.9788   -0.5581 H       1  UNL1        0.0287
     33 H           1.3713   -0.8244   -2.4734 H       1  UNL1        0.0465
     34 H           2.3685   -1.8180   -1.5318 H       1  UNL1        0.0465
     35 H           3.8534   -1.0202    0.1081 H       1  UNL1        0.0394
     36 H           5.1107    0.1461    1.5886 H       1  UNL1        0.0272
     37 H           4.0286    1.4924    1.5434 H       1  UNL1        0.0272
     38 H           6.5636    1.4992    0.4416 H       1  UNL1        0.0265
     39 H           5.3545    2.5994   -0.0392 H       1  UNL1        0.0265
     40 H           5.9907   -0.1253   -1.2643 H       1  UNL1        0.0265
     41 H           5.8976    1.3163   -2.1268 H       1  UNL1        0.0265
     42 H           3.4412    1.5382   -1.5057 H       1  UNL1        0.0272
     43 H           3.6242   -0.0037   -2.1715 H       1  UNL1        0.0272
     44 H          -0.4008   -0.3312    0.8358 H       1  UNL1        0.0471
     45 H          -0.4873    0.7757   -0.4942 H       1  UNL1        0.0471
     46 H          -3.3584    0.2298   -1.6870 H       1  UNL1        0.0683
     47 H          -4.1527    2.5192   -1.5866 H       1  UNL1        0.1376
     48 H          -4.7176    3.4847    0.4698 H       1  UNL1        0.4542
@<TRIPOS>UNITY_ATOM_ATTR
24 1
charge 1
@<TRIPOS>BOND
     1     1     2    1
     2     2     3   ar
     3     2    24   ar
     4     3     4   ar
     5     4     5    1
     6     4    22   ar
     7     5     6   ar
     8     5     9   ar
     9     6     7   ar
    10     7     8   ar
    11     8     9   ar
    12     9    10    1
    13    10    11    1
    14    10    21    1
    15    11    12    1
    16    12    13    1
    17    13    14   am
    18    13    21    1
    19    14    15    2
    20    14    16    1
    21    16    17    1
    22    16    20    1
    23    17    18    1
    24    18    19    1
    25    19    20    1
    26    22    23   ar
    27    23    24   ar
    28     1    25    1
    29     1    26    1
    30     3    27    1
    31     6    28    1
    32     7    29    1
    33    10    30    1
    34    11    31    1
    35    11    32    1
    36    12    33    1
    37    12    34    1
    38    16    35    1
    39    17    36    1
    40    17    37    1
    41    18    38    1
    42    18    39    1
    43    19    40    1
    44    19    41    1
    45    20    42    1
    46    20    43    1
    47    21    44    1
    48    21    45    1
    49    22    46    1
    50    23    47    1
    51    24    48    1
@<TRIPOS>MOLECULE
../data/bude_mols_rdkit_confs_charged/molecule_6.pdb
 48 51 0 0 0
SMALL
GASTEIGER

@<TRIPOS>ATOM
      1  N1         6.9510    1.1650    0.8410 N.pl3   1  UNL1       -0.3056
      2  C1         5.6800    1.1830    0.2070 C.ar    1  UNL1        0.2672
      3  C2         4.8270    0.1070    0.2960 C.ar    1  UNL1        0.0337
      4  C3         3.5580    0.0920   -0.3240 C.ar    1  UNL1       -0.0015
      5  C4         2.7430   -1.0660   -0.2100 C.ar    1  UNL1        0.0233
      6  C5         3.2310   -2.3340   -0.6000 C.ar    1  UNL1        0.0303
      7  N2         2.2930   -3.2710   -0.4120 N.ar    1  UNL1       -0.2839
      8  N3         1.2380   -2.6600    0.0760 N.ar    1  UNL1       -0.1779
      9  C6         1.4810   -1.3160    0.2120 C.ar    1  UNL1        0.0751
     10  C7         0.5360   -0.3120    0.7350 C.3     1  UNL1        0.0208
     11  C8        -0.6550   -0.9700    1.4080 C.3     1  UNL1       -0.0274
     12  C9        -1.7430   -1.0740    0.3450 C.3     1  UNL1        0.0153
     13  N4        -1.5700    0.1920   -0.2910 N.am    1  UNL1       -0.3006
     14  C10       -2.5600    1.0950   -0.6760 C.2     1  UNL1        0.2187
     15  O1        -2.1010    2.1790   -1.2310 O.2     1  UNL1       -0.2753
     16  C11       -4.0170    0.9590   -0.5280 C.3     1  UNL1        0.0358
     17  C12       -4.5940   -0.1990   -1.2750 C.3     1  UNL1       -0.0419
     18  C13       -5.9180   -0.3890   -0.5510 C.3     1  UNL1       -0.0523
     19  C14       -5.5250   -0.2520    0.8960 C.3     1  UNL1       -0.0523
     20  C15       -4.5130    0.8700    0.8820 C.3     1  UNL1       -0.0419
     21  C16       -0.1480    0.3380   -0.4530 C.3     1  UNL1        0.0230
     22  C17        3.2500    1.2280   -1.0160 C.ar    1  UNL1        0.0100
     23  C18        4.1350    2.3090   -1.0910 C.ar    1  UNL1        0.1716
     24  N5         5.3260    2.2770   -0.4880 N.ar    1  UNL1       -0.1984
     25 H           7.2331    0.3748    1.3560 H       1  UNL1        0.1477
     26 H           7.5498    1.9428    0.7654 H       1  UNL1        0.1477
     27 H           5.1257   -0.7201    0.8361 H       1  UNL1        0.0704
     28 H           4.1754   -2.5122   -0.9760 H       1  UNL1        0.0830
     29 H           2.3780   -4.2331   -0.6029 H       1  UNL1        0.1882
     30 H           1.0927    0.3301    1.3851 H       1  UNL1        0.0380
     31 H          -0.9941   -0.3723    2.2281 H       1  UNL1        0.0287
     32 H          -0.3986   -1.9329    1.7979 H       1  UNL1        0.0287
     33 H          -2.7164   -1.1738    0.7780 H       1  UNL1        0.0465
     34 H          -1.6692   -1.9233   -0.3017 H       1  UNL1        0.0465
     35 H          -4.3564    1.8811   -0.9517 H       1  UNL1        0.0394
     36 H          -3.9739   -1.0671   -1.1921 H       1  UNL1        0.0272
     37 H          -4.6892   -0.0379   -2.3285 H       1  UNL1        0.0272
     38 H          -6.3310   -1.3560   -0.7490 H       1  UNL1        0.0265
     39 H          -6.6721    0.3068   -0.8544 H       1  UNL1        0.0265
     40 H          -5.0870   -1.1576    1.2607 H       1  UNL1        0.0265
     41 H          -6.3583   -0.0536    1.5372 H       1  UNL1        0.0265
     42 H          -4.9742    1.7906    1.1729 H       1  UNL1        0.0272
     43 H          -3.7132    0.6857    1.5685 H       1  UNL1        0.0272
     44 H           0.1643   -0.1415   -1.3572 H       1  UNL1        0.0471
     45 H           0.1124    1.3744   -0.5067 H       1  UNL1        0.0471
     46 H           2.3392    1.2910   -1.4971 H       1  UNL1        0.0683
     47 H           3.8614    3.1493   -1.6239 H       1  UNL1        0.1376
     48 H           5.9375    3.0459   -0.5519 H       1  UNL1        0.4542
@<TRIPOS>UNITY_ATOM_ATTR
24 1
charge 1
@<TRIPOS>BOND
     1     1     2    1
     2     2     3   ar
     3     2    24   ar
     4     3     4   ar
     5     4     5    1
     6     4    22   ar
     7     5     6   ar
     8     5     9   ar
     9     6     7   ar
    10     7     8   ar
    11     8     9   ar
    12     9    10    1
    13    10    11    1
    14    10    21    1
    15    11    12    1
    16    12    13    1
    17    13    14   am
    18    13    21    1
    19    14    15    2
    20    14    16    1
    21    16    17    1
    22    16    20    1
    23    17    18    1
    24    18    19    1
    25    19    20    1
    26    22    23   ar
    27    23    24   ar
    28     1    25    1
    29     1    26    1
    30     3    27    1
    31     6    28    1
    32     7    29    1
    33    10    30    1
    34    11    31    1
    35    11    32    1
    36    12    33    1
    37    12    34    1
    38    16    35    1
    39    17    36    1
    40    17    37    1
    41    18    38    1
    42    18    39    1
    43    19    40    1
    44    19    41    1
    45    20    42    1
    46    20    43    1
    47    21    44    1
    48    21    45    1
    49    22    46    1
    50    23    47    1
    51    24    48    1
@<TRIPOS>MOLECULE
../data/bude_mols_rdkit_confs_charged/molecule_6.pdb
 48 51 0 0 0
SMALL
GASTEIGER

@<TRIPOS>ATOM
      1  N1         5.5180   -2.5690    1.3140 N.pl3   1  UNL1       -0.3056
      2  C1         4.9250   -1.6550    0.4210 C.ar    1  UNL1        0.2672
      3  C2         4.1300   -0.6110    0.7990 C.ar    1  UNL1        0.0337
      4  C3         3.5430    0.2880   -0.0910 C.ar    1  UNL1       -0.0015
      5  C4         2.7240    1.3960    0.3640 C.ar    1  UNL1        0.0233
      6  C5         3.0980    2.3630    1.3140 C.ar    1  UNL1        0.0303
      7  N2         2.0780    3.2330    1.4490 N.ar    1  UNL1       -0.2839
      8  N3         1.1040    2.8550    0.6410 N.ar    1  UNL1       -0.1779
      9  C6         1.4620    1.7290   -0.0440 C.ar    1  UNL1        0.0751
     10  C7         0.6070    1.0260   -1.0180 C.3     1  UNL1        0.0208
     11  C8        -0.6540    1.8650   -1.2600 C.3     1  UNL1       -0.0274
     12  C9        -1.6040    1.2840   -0.2340 C.3     1  UNL1        0.0153
     13  N4        -1.3760   -0.1380   -0.4380 N.am    1  UNL1       -0.3006
     14  C10       -2.3760   -1.1200   -0.5710 C.2     1  UNL1        0.2187
     15  O1        -2.0530   -2.3160   -0.7380 O.2     1  UNL1       -0.2753
     16  C11       -3.8160   -0.7540   -0.5150 C.3     1  UNL1        0.0358
     17  C12       -4.2020   -0.1440    0.7810 C.3     1  UNL1       -0.0419
     18  C13       -4.9900   -1.1710    1.5520 C.3     1  UNL1       -0.0523
     19  C14       -5.4100   -2.2330    0.5940 C.3     1  UNL1       -0.0523
     20  C15       -4.6880   -1.9510   -0.6800 C.3     1  UNL1       -0.0419
     21  C16        0.0590   -0.2820   -0.4770 C.3     1  UNL1        0.0230
     22  C17        3.8150    0.0620   -1.4200 C.ar    1  UNL1        0.0100
     23  C18        4.6220   -0.9960   -1.8060 C.ar    1  UNL1        0.1716
     24  N5         5.1650   -1.8370   -0.8990 N.ar    1  UNL1       -0.1984
     25 H           5.3714   -2.4760    2.2831 H       1  UNL1        0.1477
     26 H           6.0790   -3.3008    0.9690 H       1  UNL1        0.1477
     27 H           3.9524   -0.4789    1.8070 H       1  UNL1        0.0704
     28 H           3.9969    2.3999    1.8196 H       1  UNL1        0.0830
     29 H           2.0616    4.0152    2.0466 H       1  UNL1        0.1882
     30 H           1.2146    0.8628   -1.8835 H       1  UNL1        0.0380
     31 H          -1.0255    1.7344   -2.2549 H       1  UNL1        0.0287
     32 H          -0.5012    2.9198   -1.1654 H       1  UNL1        0.0287
     33 H          -2.6190    1.5546   -0.4374 H       1  UNL1        0.0465
     34 H          -1.4406    1.6229    0.7677 H       1  UNL1        0.0465
     35 H          -3.9513   -0.0528   -1.3118 H       1  UNL1        0.0394
     36 H          -4.8033    0.7245    0.6106 H       1  UNL1        0.0272
     37 H          -3.3328    0.1523    1.3302 H       1  UNL1        0.0272
     38 H          -5.8524   -0.7144    1.9909 H       1  UNL1        0.0265
     39 H          -4.3944   -1.5885    2.3368 H       1  UNL1        0.0265
     40 H          -6.4678   -2.1945    0.4375 H       1  UNL1        0.0265
     41 H          -5.1782   -3.2089    0.9665 H       1  UNL1        0.0265
     42 H          -4.0852   -2.7958   -0.9406 H       1  UNL1        0.0272
     43 H          -5.4015   -1.7627   -1.4548 H       1  UNL1        0.0272
     44 H           0.4394   -0.4639    0.5064 H       1  UNL1        0.0471
     45 H           0.3492   -1.1079   -1.0923 H       1  UNL1        0.0471
     46 H           3.4140    0.6867   -2.1369 H       1  UNL1        0.0683
     47 H           4.8126   -1.1450   -2.8092 H       1  UNL1        0.1376
     48 H           5.7351   -2.5820   -1.1977 H       1  UNL1        0.4542
@<TRIPOS>UNITY_ATOM_ATTR
24 1
charge 1
@<TRIPOS>BOND
     1     1     2    1
     2     2     3   ar
     3     2    24   ar
     4     3     4   ar
     5     4     5    1
     6     4    22   ar
     7     5     6   ar
     8     5     9   ar
     9     6     7   ar
    10     7     8   ar
    11     8     9   ar
    12     9    10    1
    13    10    11    1
    14    10    21    1
    15    11    12    1
    16    12    13    1
    17    13    14   am
    18    13    21    1
    19    14    15    2
    20    14    16    1
    21    16    17    1
    22    16    20    1
    23    17    18    1
    24    18    19    1
    25    19    20    1
    26    22    23   ar
    27    23    24   ar
    28     1    25    1
    29     1    26    1
    30     3    27    1
    31     6    28    1
    32     7    29    1
    33    10    30    1
    34    11    31    1
    35    11    32    1
    36    12    33    1
    37    12    34    1
    38    16    35    1
    39    17    36    1
    40    17    37    1
    41    18    38    1
    42    18    39    1
    43    19    40    1
    44    19    41    1
    45    20    42    1
    46    20    43    1
    47    21    44    1
    48    21    45    1
    49    22    46    1
    50    23    47    1
    51    24    48    1
@<TRIPOS>MOLECULE
../data/bude_mols_rdkit_confs_charged/molecule_6.pdb
 48 51 0 0 0
SMALL
GASTEIGER

@<TRIPOS>ATOM
      1  N1         3.7660    3.1930   -0.2910 N.pl3   1  UNL1       -0.3056
      2  C1         4.1600    1.8880    0.0720 C.ar    1  UNL1        0.2672
      3  C2         3.4450    0.7690   -0.3680 C.ar    1  UNL1        0.0337
      4  C3         3.8070   -0.5050   -0.0310 C.ar    1  UNL1       -0.0015
      5  C4         3.0650   -1.6820   -0.4580 C.ar    1  UNL1        0.0233
      6  C5         3.5940   -2.7330   -1.2400 C.ar    1  UNL1        0.0303
      7  N2         2.6120   -3.6050   -1.4360 N.ar    1  UNL1       -0.2839
      8  N3         1.5280   -3.1810   -0.8440 N.ar    1  UNL1       -0.1779
      9  C6         1.7520   -1.9850   -0.2160 C.ar    1  UNL1        0.0751
     10  C7         0.7330   -1.2640    0.5530 C.3     1  UNL1        0.0208
     11  C8        -0.5160   -2.1530    0.7180 C.3     1  UNL1       -0.0274
     12  C9        -1.5330   -1.1450    1.1960 C.3     1  UNL1        0.0153
     13  N4        -1.2770   -0.0270    0.3200 N.am    1  UNL1       -0.3006
     14  C10       -2.2050    0.9670   -0.0810 C.2     1  UNL1        0.2187
     15  O1        -1.8560    1.8980   -0.8530 O.2     1  UNL1       -0.2753
     16  C11       -3.6070    0.9550    0.3840 C.3     1  UNL1        0.0358
     17  C12       -4.3750    2.1590   -0.1260 C.3     1  UNL1       -0.0419
     18  C13       -5.7950    1.6800   -0.2830 C.3     1  UNL1       -0.0523
     19  C14       -5.5530    0.3130   -0.9370 C.3     1  UNL1       -0.0523
     20  C15       -4.3760   -0.2330   -0.1730 C.3     1  UNL1       -0.0419
     21  C16        0.1340   -0.0690   -0.1020 C.3     1  UNL1        0.0230
     22  C17        4.9350   -0.6300    0.7800 C.ar    1  UNL1        0.0100
     23  C18        5.6400    0.4870    1.2130 C.ar    1  UNL1        0.1716
     24  N5         5.2500    1.7250    0.8580 N.ar    1  UNL1       -0.1984
     25 H           2.9754    3.3276   -0.8621 H       1  UNL1        0.1477
     26 H           4.2816    3.9692    0.0268 H       1  UNL1        0.1477
     27 H           2.6166    0.9103   -0.9670 H       1  UNL1        0.0704
     28 H           4.5610   -2.8087   -1.5924 H       1  UNL1        0.0830
     29 H           2.6892   -4.4420   -1.9485 H       1  UNL1        0.1882
     30 H           1.2673   -0.9898    1.4386 H       1  UNL1        0.0380
     31 H          -0.3561   -2.9229    1.4437 H       1  UNL1        0.0287
     32 H          -0.8017   -2.6777   -0.1697 H       1  UNL1        0.0287
     33 H          -1.3693   -0.8825    2.2203 H       1  UNL1        0.0465
     34 H          -2.5422   -1.4991    1.1622 H       1  UNL1        0.0465
     35 H          -3.5409    0.9330    1.4517 H       1  UNL1        0.0394
     36 H          -3.9821    2.4846   -1.0665 H       1  UNL1        0.0272
     37 H          -4.3041    2.9923    0.5414 H       1  UNL1        0.0272
     38 H          -6.3632    2.3274   -0.9177 H       1  UNL1        0.0265
     39 H          -6.3597    1.6481    0.6253 H       1  UNL1        0.0265
     40 H          -5.3191    0.4210   -1.9755 H       1  UNL1        0.0265
     41 H          -6.4099   -0.3267   -0.8994 H       1  UNL1        0.0265
     42 H          -4.7164   -0.8565    0.6272 H       1  UNL1        0.0272
     43 H          -3.7514   -0.8229   -0.8108 H       1  UNL1        0.0272
     44 H           0.1995   -0.1585   -1.1662 H       1  UNL1        0.0471
     45 H           0.6494    0.8260    0.1778 H       1  UNL1        0.0471
     46 H           5.2523   -1.5700    1.0641 H       1  UNL1        0.0683
     47 H           6.4710    0.3656    1.8128 H       1  UNL1        0.1376
     48 H           5.7560    2.5101    1.1691 H       1  UNL1        0.4542
@<TRIPOS>UNITY_ATOM_ATTR
24 1
charge 1
@<TRIPOS>BOND
     1     1     2    1
     2     2     3   ar
     3     2    24   ar
     4     3     4   ar
     5     4     5    1
     6     4    22   ar
     7     5     6   ar
     8     5     9   ar
     9     6     7   ar
    10     7     8   ar
    11     8     9   ar
    12     9    10    1
    13    10    11    1
    14    10    21    1
    15    11    12    1
    16    12    13    1
    17    13    14   am
    18    13    21    1
    19    14    15    2
    20    14    16    1
    21    16    17    1
    22    16    20    1
    23    17    18    1
    24    18    19    1
    25    19    20    1
    26    22    23   ar
    27    23    24   ar
    28     1    25    1
    29     1    26    1
    30     3    27    1
    31     6    28    1
    32     7    29    1
    33    10    30    1
    34    11    31    1
    35    11    32    1
    36    12    33    1
    37    12    34    1
    38    16    35    1
    39    17    36    1
    40    17    37    1
    41    18    38    1
    42    18    39    1
    43    19    40    1
    44    19    41    1
    45    20    42    1
    46    20    43    1
    47    21    44    1
    48    21    45    1
    49    22    46    1
    50    23    47    1
    51    24    48    1
@<TRIPOS>MOLECULE
../data/bude_mols_rdkit_confs_charged/molecule_6.pdb
 48 51 0 0 0
SMALL
GASTEIGER

@<TRIPOS>ATOM
      1  N1         5.4930    0.4520    2.6680 N.pl3   1  UNL1       -0.3056
      2  C1         4.6590   -0.2330    1.7420 C.ar    1  UNL1        0.2672
      3  C2         4.2580    0.3550    0.5600 C.ar    1  UNL1        0.0337
      4  C3         3.4380   -0.3200   -0.3490 C.ar    1  UNL1       -0.0015
      5  C4         3.0600    0.3560   -1.5740 C.ar    1  UNL1        0.0233
      6  C5         3.8760    1.0390   -2.4710 C.ar    1  UNL1        0.0303
      7  N2         3.1240    1.5140   -3.4760 N.ar    1  UNL1       -0.2839
      8  N3         1.8910    1.1530   -3.2340 N.ar    1  UNL1       -0.1779
      9  C6         1.7980    0.4420   -2.0820 C.ar    1  UNL1        0.0751
     10  C7         0.5500   -0.0940   -1.5520 C.3     1  UNL1        0.0208
     11  C8        -0.6010    0.3870   -2.4120 C.3     1  UNL1       -0.0274
     12  C9        -1.7870    0.1430   -1.5230 C.3     1  UNL1        0.0153
     13  N4        -1.2790    0.1450   -0.1680 N.am    1  UNL1       -0.3006
     14  C10       -2.0330   -0.1090    1.0050 C.2     1  UNL1        0.2187
     15  O1        -1.4770   -0.0780    2.1470 O.2     1  UNL1       -0.2753
     16  C11       -3.4750   -0.4180    0.9710 C.3     1  UNL1        0.0358
     17  C12       -4.3190    0.6620    0.3860 C.3     1  UNL1       -0.0419
     18  C13       -5.5180    0.7820    1.2890 C.3     1  UNL1       -0.0523
     19  C14       -5.4850   -0.4330    2.1970 C.3     1  UNL1       -0.0523
     20  C15       -4.0210   -0.8150    2.3030 C.3     1  UNL1       -0.0419
     21  C16        0.1590    0.4520   -0.2000 C.3     1  UNL1        0.0230
     22  C17        3.0690   -1.5910    0.0170 C.ar    1  UNL1        0.0100
     23  C18        3.4840   -2.1670    1.2110 C.ar    1  UNL1        0.1716
     24  N5         4.2730   -1.4820    2.0580 N.ar    1  UNL1       -0.1984
     25 H           5.7968    1.3679    2.4728 H       1  UNL1        0.1477
     26 H           5.7666    0.0103    3.5042 H       1  UNL1        0.1477
     27 H           4.5703    1.3142    0.3421 H       1  UNL1        0.0704
     28 H           4.8966    1.1608   -2.3781 H       1  UNL1        0.0830
     29 H           3.4407    2.0353   -4.2488 H       1  UNL1        0.1882
     30 H           0.7142   -1.1507   -1.5162 H       1  UNL1        0.0380
     31 H          -0.6718   -0.1794   -3.3170 H       1  UNL1        0.0287
     32 H          -0.5041    1.4046   -2.7282 H       1  UNL1        0.0287
     33 H          -2.2338   -0.8022   -1.7508 H       1  UNL1        0.0465
     34 H          -2.5392    0.8916   -1.6599 H       1  UNL1        0.0465
     35 H          -3.5324   -1.2597    0.3129 H       1  UNL1        0.0394
     36 H          -4.6243    0.4002   -0.6055 H       1  UNL1        0.0272
     37 H          -3.7838    1.5861    0.3179 H       1  UNL1        0.0272
     38 H          -6.4186    0.7893    0.7113 H       1  UNL1        0.0265
     39 H          -5.4934    1.6914    1.8523 H       1  UNL1        0.0265
     40 H          -6.0514   -1.2346    1.7709 H       1  UNL1        0.0265
     41 H          -5.9133   -0.2260    3.1555 H       1  UNL1        0.0265
     42 H          -3.5390   -0.2770    3.0924 H       1  UNL1        0.0272
     43 H          -3.8698   -1.8496    2.5302 H       1  UNL1        0.0272
     44 H           0.3358    1.5054   -0.1373 H       1  UNL1        0.0471
     45 H           0.7131    0.0375    0.6161 H       1  UNL1        0.0471
     46 H           2.4633   -2.1364   -0.6160 H       1  UNL1        0.0683
     47 H           3.1853   -3.1256    1.4495 H       1  UNL1        0.1376
     48 H           4.5660   -1.8922    2.9037 H       1  UNL1        0.4542
@<TRIPOS>UNITY_ATOM_ATTR
24 1
charge 1
@<TRIPOS>BOND
     1     1     2    1
     2     2     3   ar
     3     2    24   ar
     4     3     4   ar
     5     4     5    1
     6     4    22   ar
     7     5     6   ar
     8     5     9   ar
     9     6     7   ar
    10     7     8   ar
    11     8     9   ar
    12     9    10    1
    13    10    11    1
    14    10    21    1
    15    11    12    1
    16    12    13    1
    17    13    14   am
    18    13    21    1
    19    14    15    2
    20    14    16    1
    21    16    17    1
    22    16    20    1
    23    17    18    1
    24    18    19    1
    25    19    20    1
    26    22    23   ar
    27    23    24   ar
    28     1    25    1
    29     1    26    1
    30     3    27    1
    31     6    28    1
    32     7    29    1
    33    10    30    1
    34    11    31    1
    35    11    32    1
    36    12    33    1
    37    12    34    1
    38    16    35    1
    39    17    36    1
    40    17    37    1
    41    18    38    1
    42    18    39    1
    43    19    40    1
    44    19    41    1
    45    20    42    1
    46    20    43    1
    47    21    44    1
    48    21    45    1
    49    22    46    1
    50    23    47    1
    51    24    48    1
@<TRIPOS>MOLECULE
../data/bude_mols_rdkit_confs_charged/molecule_6.pdb
 48 51 0 0 0
SMALL
GASTEIGER

@<TRIPOS>ATOM
      1  N1        -6.1020    2.4530    0.6640 N.pl3   1  UNL1       -0.3056
      2  C1        -5.3300    1.4430    0.0260 C.ar    1  UNL1        0.2672
      3  C2        -4.4330    0.6700    0.7550 C.ar    1  UNL1        0.0337
      4  C3        -3.6790   -0.3290    0.1280 C.ar    1  UNL1       -0.0015
      5  C4        -2.7560   -1.1560    0.9130 C.ar    1  UNL1        0.0233
      6  C5        -3.0790   -1.8310    2.0990 C.ar    1  UNL1        0.0303
      7  N2        -1.9950   -2.4970    2.5070 N.ar    1  UNL1       -0.2839
      8  N3        -1.0250   -2.2710    1.6430 N.ar    1  UNL1       -0.1779
      9  C6        -1.4530   -1.4580    0.6590 C.ar    1  UNL1        0.0751
     10  C7        -0.5780   -1.0010   -0.4450 C.3     1  UNL1        0.0208
     11  C8         0.6930   -1.8700   -0.4990 C.3     1  UNL1       -0.0274
     12  C9         1.4960   -0.9440   -1.4410 C.3     1  UNL1        0.0153
     13  N4         1.3990    0.2580   -0.6250 N.am    1  UNL1       -0.3006
     14  C10        2.4750    1.1090   -0.3110 C.2     1  UNL1        0.2187
     15  O1         2.2490    2.1360    0.3740 O.2     1  UNL1       -0.2753
     16  C11        3.8360    0.7810   -0.7830 C.3     1  UNL1        0.0358
     17  C12        4.2570   -0.5290   -0.1610 C.3     1  UNL1       -0.0419
     18  C13        5.4690   -0.1910    0.7240 C.3     1  UNL1       -0.0523
     19  C14        6.0530    0.9800   -0.0230 C.3     1  UNL1       -0.0523
     20  C15        4.8020    1.8230   -0.2680 C.3     1  UNL1       -0.0419
     21  C16        0.0040    0.3680   -0.1830 C.3     1  UNL1        0.0230
     22  C17       -3.8820   -0.4880   -1.2200 C.ar    1  UNL1        0.0100
     23  C18       -4.7860    0.3040   -1.9200 C.ar    1  UNL1        0.1716
     24  N5        -5.5030    1.2610   -1.2930 N.ar    1  UNL1       -0.1984
     25 H          -6.0006    2.6135    1.6300 H       1  UNL1        0.1477
     26 H          -6.7378    2.9915    0.1396 H       1  UNL1        0.1477
     27 H          -4.3221    0.8343    1.7678 H       1  UNL1        0.0704
     28 H          -3.9950   -1.8159    2.5742 H       1  UNL1        0.0830
     29 H          -1.9315   -3.0589    3.3129 H       1  UNL1        0.1882
     30 H          -1.1918   -1.0344   -1.3208 H       1  UNL1        0.0380
     31 H           0.5140   -2.8351   -0.9249 H       1  UNL1        0.0287
     32 H           1.1479   -2.1212    0.4364 H       1  UNL1        0.0287
     33 H           1.0307   -0.8290   -2.3976 H       1  UNL1        0.0465
     34 H           2.4810   -1.2663   -1.7070 H       1  UNL1        0.0465
     35 H           3.8392    0.7372   -1.8521 H       1  UNL1        0.0394
     36 H           4.5318   -1.2321   -0.9193 H       1  UNL1        0.0272
     37 H           3.4644   -0.9741    0.4033 H       1  UNL1        0.0272
     38 H           6.1583   -1.0078    0.7750 H       1  UNL1        0.0265
     39 H           5.2256    0.0145    1.7455 H       1  UNL1        0.0265
     40 H           6.5062    0.6731   -0.9424 H       1  UNL1        0.0265
     41 H           6.8341    1.4914    0.4998 H       1  UNL1        0.0265
     42 H           4.4485    2.2709    0.6372 H       1  UNL1        0.0272
     43 H           4.9532    2.6465   -0.9343 H       1  UNL1        0.0272
     44 H          -0.0461    0.6085    0.8584 H       1  UNL1        0.0471
     45 H          -0.5274    1.1434   -0.6941 H       1  UNL1        0.0471
     46 H          -3.3507   -1.2132   -1.7268 H       1  UNL1        0.0683
     47 H          -4.9106    0.1580   -2.9340 H       1  UNL1        0.1376
     48 H          -6.1424    1.8164   -1.7949 H       1  UNL1        0.4542
@<TRIPOS>UNITY_ATOM_ATTR
24 1
charge 1
@<TRIPOS>BOND
     1     1     2    1
     2     2     3   ar
     3     2    24   ar
     4     3     4   ar
     5     4     5    1
     6     4    22   ar
     7     5     6   ar
     8     5     9   ar
     9     6     7   ar
    10     7     8   ar
    11     8     9   ar
    12     9    10    1
    13    10    11    1
    14    10    21    1
    15    11    12    1
    16    12    13    1
    17    13    14   am
    18    13    21    1
    19    14    15    2
    20    14    16    1
    21    16    17    1
    22    16    20    1
    23    17    18    1
    24    18    19    1
    25    19    20    1
    26    22    23   ar
    27    23    24   ar
    28     1    25    1
    29     1    26    1
    30     3    27    1
    31     6    28    1
    32     7    29    1
    33    10    30    1
    34    11    31    1
    35    11    32    1
    36    12    33    1
    37    12    34    1
    38    16    35    1
    39    17    36    1
    40    17    37    1
    41    18    38    1
    42    18    39    1
    43    19    40    1
    44    19    41    1
    45    20    42    1
    46    20    43    1
    47    21    44    1
    48    21    45    1
    49    22    46    1
    50    23    47    1
    51    24    48    1
@<TRIPOS>MOLECULE
../data/bude_mols_rdkit_confs_charged/molecule_6.pdb
 48 51 0 0 0
SMALL
GASTEIGER

@<TRIPOS>ATOM
      1  N1         6.9700    1.0220   -0.1930 N.pl3   1  UNL1       -0.3056
      2  C1         5.8010    0.3770    0.2880 C.ar    1  UNL1        0.2672
      3  C2         4.7030    0.1840   -0.5590 C.ar    1  UNL1        0.0337
      4  C3         3.5850   -0.4270   -0.1160 C.ar    1  UNL1       -0.0015
      5  C4         2.3840   -0.7920   -0.8770 C.ar    1  UNL1        0.0233
      6  C5         2.3170   -1.7390   -1.8700 C.ar    1  UNL1        0.0303
      7  N2         1.0120   -1.9480   -2.1350 N.ar    1  UNL1       -0.2839
      8  N3         0.2890   -1.1660   -1.3490 N.ar    1  UNL1       -0.1779
      9  C6         1.0900   -0.4150   -0.5450 C.ar    1  UNL1        0.0751
     10  C7         0.7460    0.7350    0.3070 C.3     1  UNL1        0.0208
     11  C8         0.2030    0.3620    1.6700 C.3     1  UNL1       -0.0274
     12  C9        -1.0200    1.2410    1.8150 C.3     1  UNL1        0.0153
     13  N4        -1.6090    0.8470    0.4840 N.am    1  UNL1       -0.3006
     14  C10       -2.7980    0.1590    0.4170 C.2     1  UNL1        0.2187
     15  O1        -3.3350   -0.2010    1.5490 O.2     1  UNL1       -0.2753
     16  C11       -3.6060   -0.2540   -0.7530 C.3     1  UNL1        0.0358
     17  C12       -4.5480    0.8980   -1.1570 C.3     1  UNL1       -0.0419
     18  C13       -5.6290    0.7830   -0.0490 C.3     1  UNL1       -0.0523
     19  C14       -5.9230   -0.6830   -0.1240 C.3     1  UNL1       -0.0523
     20  C15       -4.6040   -1.3500   -0.3920 C.3     1  UNL1       -0.0419
     21  C16       -0.5790    1.3030   -0.4000 C.3     1  UNL1        0.0230
     22  C17        3.5950   -0.8460    1.2400 C.ar    1  UNL1        0.0100
     23  C18        4.6940   -0.6340    2.0350 C.ar    1  UNL1        0.1716
     24  N5         5.8150   -0.0180    1.5710 N.ar    1  UNL1       -0.1984
     25 H           7.0126    1.3317   -1.1265 H       1  UNL1        0.1477
     26 H           7.7384    1.1597    0.4069 H       1  UNL1        0.1477
     27 H           4.7497    0.5138   -1.5358 H       1  UNL1        0.0704
     28 H           3.1167   -2.2037   -2.3277 H       1  UNL1        0.0830
     29 H           0.6557   -2.5779   -2.8025 H       1  UNL1        0.1882
     30 H           1.6143    1.3508    0.4155 H       1  UNL1        0.0380
     31 H           0.9184    0.5722    2.4374 H       1  UNL1        0.0287
     32 H          -0.0200   -0.6807    1.7589 H       1  UNL1        0.0287
     33 H          -0.7827    2.2825    1.8765 H       1  UNL1        0.0465
     34 H          -1.6261    1.1167    2.6880 H       1  UNL1        0.0465
     35 H          -2.9025   -0.5549   -1.5010 H       1  UNL1        0.0394
     36 H          -4.9633    0.7452   -2.1312 H       1  UNL1        0.0272
     37 H          -4.0770    1.8566   -1.2220 H       1  UNL1        0.0272
     38 H          -6.4926    1.3732   -0.2740 H       1  UNL1        0.0265
     39 H          -5.3250    1.1330    0.9154 H       1  UNL1        0.0265
     40 H          -6.6112   -0.8852   -0.9180 H       1  UNL1        0.0265
     41 H          -6.3705   -1.0423    0.7791 H       1  UNL1        0.0265
     42 H          -4.2739   -1.8725    0.4814 H       1  UNL1        0.0272
     43 H          -4.6930   -2.0585   -1.1888 H       1  UNL1        0.0272
     44 H          -0.7008    0.8951   -1.3817 H       1  UNL1        0.0471
     45 H          -0.5710    2.3636   -0.5412 H       1  UNL1        0.0471
     46 H           2.7650   -1.3163    1.6336 H       1  UNL1        0.0683
     47 H           4.6691   -0.9522    3.0164 H       1  UNL1        0.1376
     48 H           6.5985    0.1308    2.1482 H       1  UNL1        0.4542
@<TRIPOS>UNITY_ATOM_ATTR
24 1
charge 1
@<TRIPOS>BOND
     1     1     2    1
     2     2     3   ar
     3     2    24   ar
     4     3     4   ar
     5     4     5    1
     6     4    22   ar
     7     5     6   ar
     8     5     9   ar
     9     6     7   ar
    10     7     8   ar
    11     8     9   ar
    12     9    10    1
    13    10    11    1
    14    10    21    1
    15    11    12    1
    16    12    13    1
    17    13    14   am
    18    13    21    1
    19    14    15    2
    20    14    16    1
    21    16    17    1
    22    16    20    1
    23    17    18    1
    24    18    19    1
    25    19    20    1
    26    22    23   ar
    27    23    24   ar
    28     1    25    1
    29     1    26    1
    30     3    27    1
    31     6    28    1
    32     7    29    1
    33    10    30    1
    34    11    31    1
    35    11    32    1
    36    12    33    1
    37    12    34    1
    38    16    35    1
    39    17    36    1
    40    17    37    1
    41    18    38    1
    42    18    39    1
    43    19    40    1
    44    19    41    1
    45    20    42    1
    46    20    43    1
    47    21    44    1
    48    21    45    1
    49    22    46    1
    50    23    47    1
    51    24    48    1
@<TRIPOS>MOLECULE
../data/bude_mols_rdkit_confs_charged/molecule_6.pdb
 48 51 0 0 0
SMALL
GASTEIGER

@<TRIPOS>ATOM
      1  N1         5.5400   -1.1460   -1.7830 N.pl3   1  UNL1       -0.3056
      2  C1         4.6540   -1.2160   -0.6630 C.ar    1  UNL1        0.2672
      3  C2         3.8740   -0.1450   -0.2690 C.ar    1  UNL1        0.0337
      4  C3         3.0330   -0.2530    0.8150 C.ar    1  UNL1       -0.0015
      5  C4         2.1820    0.8290    1.2820 C.ar    1  UNL1        0.0233
      6  C5         2.0870    1.2240    2.6270 C.ar    1  UNL1        0.0303
      7  N2         1.2270    2.2380    2.7040 N.ar    1  UNL1       -0.2839
      8  N3         0.7920    2.4850    1.4940 N.ar    1  UNL1       -0.1779
      9  C6         1.3350    1.6640    0.5920 C.ar    1  UNL1        0.0751
     10  C7         1.0930    1.6330   -0.8690 C.3     1  UNL1        0.0208
     11  C8        -0.0080    2.6440   -1.1680 C.3     1  UNL1       -0.0274
     12  C9        -1.2970    1.8840   -1.0130 C.3     1  UNL1        0.0153
     13  N4        -0.9520    0.4910   -0.8160 N.am    1  UNL1       -0.3006
     14  C10       -1.7250   -0.5600   -0.2710 C.2     1  UNL1        0.2187
     15  O1        -1.2510   -1.7240   -0.1780 O.2     1  UNL1       -0.2753
     16  C11       -3.1130   -0.3800    0.2190 C.3     1  UNL1        0.0358
     17  C12       -3.7220   -1.6380    0.7360 C.3     1  UNL1       -0.0419
     18  C13       -5.1960   -1.2530    0.8550 C.3     1  UNL1       -0.0523
     19  C14       -5.4140   -0.4930   -0.4340 C.3     1  UNL1       -0.0523
     20  C15       -4.0630    0.0970   -0.8190 C.3     1  UNL1       -0.0419
     21  C16        0.4060    0.3510   -1.3050 C.3     1  UNL1        0.0230
     22  C17        3.0260   -1.4780    1.4640 C.ar    1  UNL1        0.0100
     23  C18        3.8040   -2.5340    1.0650 C.ar    1  UNL1        0.1716
     24  N5         4.6100   -2.3840    0.0010 N.ar    1  UNL1       -0.1984
     25 H           5.6102   -0.3135   -2.3038 H       1  UNL1        0.1477
     26 H           6.0798   -1.9303   -2.0334 H       1  UNL1        0.1477
     27 H           3.9227    0.7432   -0.7922 H       1  UNL1        0.0704
     28 H           2.5960    0.8012    3.4189 H       1  UNL1        0.0830
     29 H           0.9653    2.7162    3.5238 H       1  UNL1        0.1882
     30 H           2.0415    1.7832   -1.3408 H       1  UNL1        0.0380
     31 H           0.0884    3.0192   -2.1654 H       1  UNL1        0.0287
     32 H           0.0380    3.4894   -0.5137 H       1  UNL1        0.0287
     33 H          -1.8948    1.9926   -1.8938 H       1  UNL1        0.0465
     34 H          -1.8603    2.2568   -0.1831 H       1  UNL1        0.0465
     35 H          -2.9861    0.3497    0.9913 H       1  UNL1        0.0394
     36 H          -3.3122   -1.9057    1.6875 H       1  UNL1        0.0272
     37 H          -3.5479   -2.4894    0.1118 H       1  UNL1        0.0272
     38 H          -5.3702   -0.6323    1.7090 H       1  UNL1        0.0265
     39 H          -5.8550   -2.0855    0.9875 H       1  UNL1        0.0265
     40 H          -6.1304    0.2880   -0.2866 H       1  UNL1        0.0265
     41 H          -5.7909   -1.1340   -1.2034 H       1  UNL1        0.0265
     42 H          -3.7652   -0.2497   -1.7865 H       1  UNL1        0.0272
     43 H          -4.0951    1.1654   -0.8678 H       1  UNL1        0.0272
     44 H           0.8810   -0.5019   -0.8670 H       1  UNL1        0.0471
     45 H           0.4471    0.2038   -2.3640 H       1  UNL1        0.0471
     46 H           2.4090   -1.6002    2.2822 H       1  UNL1        0.0683
     47 H           3.7709   -3.4308    1.5746 H       1  UNL1        0.1376
     48 H           5.1730   -3.1355   -0.2949 H       1  UNL1        0.4542
@<TRIPOS>UNITY_ATOM_ATTR
24 1
charge 1
@<TRIPOS>BOND
     1     1     2    1
     2     2     3   ar
     3     2    24   ar
     4     3     4   ar
     5     4     5    1
     6     4    22   ar
     7     5     6   ar
     8     5     9   ar
     9     6     7   ar
    10     7     8   ar
    11     8     9   ar
    12     9    10    1
    13    10    11    1
    14    10    21    1
    15    11    12    1
    16    12    13    1
    17    13    14   am
    18    13    21    1
    19    14    15    2
    20    14    16    1
    21    16    17    1
    22    16    20    1
    23    17    18    1
    24    18    19    1
    25    19    20    1
    26    22    23   ar
    27    23    24   ar
    28     1    25    1
    29     1    26    1
    30     3    27    1
    31     6    28    1
    32     7    29    1
    33    10    30    1
    34    11    31    1
    35    11    32    1
    36    12    33    1
    37    12    34    1
    38    16    35    1
    39    17    36    1
    40    17    37    1
    41    18    38    1
    42    18    39    1
    43    19    40    1
    44    19    41    1
    45    20    42    1
    46    20    43    1
    47    21    44    1
    48    21    45    1
    49    22    46    1
    50    23    47    1
    51    24    48    1
@<TRIPOS>MOLECULE
../data/bude_mols_rdkit_confs_charged/molecule_6.pdb
 48 51 0 0 0
SMALL
GASTEIGER

@<TRIPOS>ATOM
      1  N1         6.8110    1.1980    0.7590 N.pl3   1  UNL1       -0.3056
      2  C1         5.7670    0.2510    0.7860 C.ar    1  UNL1        0.2672
      3  C2         4.7620    0.3350   -0.1520 C.ar    1  UNL1        0.0337
      4  C3         3.7800   -0.6030   -0.1130 C.ar    1  UNL1       -0.0015
      5  C4         2.7070   -0.5800   -1.1190 C.ar    1  UNL1        0.0233
      6  C5         2.9300   -0.4770   -2.4900 C.ar    1  UNL1        0.0303
      7  N2         1.7160   -0.6040   -3.0450 N.ar    1  UNL1       -0.2839
      8  N3         0.7860   -0.7730   -2.1260 N.ar    1  UNL1       -0.1779
      9  C6         1.3800   -0.7600   -0.8950 C.ar    1  UNL1        0.0751
     10  C7         0.6300   -0.7930    0.3570 C.3     1  UNL1        0.0208
     11  C8        -0.6140   -1.6830    0.1980 C.3     1  UNL1       -0.0274
     12  C9        -1.5730   -0.9260    1.1470 C.3     1  UNL1        0.0153
     13  N4        -1.4090    0.3900    0.4940 N.am    1  UNL1       -0.3006
     14  C10       -2.4540    1.1290   -0.0920 C.2     1  UNL1        0.2187
     15  O1        -2.2450    2.2460   -0.6240 O.2     1  UNL1       -0.2753
     16  C11       -3.8420    0.6140   -0.1010 C.3     1  UNL1        0.0358
     17  C12       -4.5600    0.6720    1.1980 C.3     1  UNL1       -0.0419
     18  C13       -6.0100    0.4240    0.7320 C.3     1  UNL1       -0.0523
     19  C14       -6.1130    1.3610   -0.4340 C.3     1  UNL1       -0.0523
     20  C15       -4.7040    1.4540   -1.0130 C.3     1  UNL1       -0.0419
     21  C16        0.0000    0.6220    0.5970 C.3     1  UNL1        0.0230
     22  C17        3.7700   -1.6140    0.8290 C.ar    1  UNL1        0.0100
     23  C18        4.7860   -1.6690    1.7480 C.ar    1  UNL1        0.1716
     24  N5         5.7570   -0.7330    1.7000 N.ar    1  UNL1       -0.1984
     25 H           6.8079    1.9150    0.0844 H       1  UNL1        0.1477
     26 H           7.5432    1.1423    1.4148 H       1  UNL1        0.1477
     27 H           4.7551    1.0852   -0.8606 H       1  UNL1        0.0704
     28 H           3.8311   -0.3344   -2.9724 H       1  UNL1        0.0830
     29 H           1.5417   -0.5748   -4.0135 H       1  UNL1        0.1882
     30 H           1.2948   -1.1236    1.1275 H       1  UNL1        0.0380
     31 H          -0.4346   -2.6860    0.5247 H       1  UNL1        0.0287
     32 H          -0.9640   -1.8112   -0.8050 H       1  UNL1        0.0287
     33 H          -1.2397   -0.9296    2.1638 H       1  UNL1        0.0465
     34 H          -2.5683   -1.3057    1.2472 H       1  UNL1        0.0465
     35 H          -3.7159   -0.4056   -0.4001 H       1  UNL1        0.0394
     36 H          -4.4538    1.6287    1.6652 H       1  UNL1        0.0272
     37 H          -4.2048   -0.0187    1.9340 H       1  UNL1        0.0272
     38 H          -6.7148    0.6735    1.4975 H       1  UNL1        0.0265
     39 H          -6.2227   -0.5968    0.4918 H       1  UNL1        0.0265
     40 H          -6.4479    2.3243   -0.1103 H       1  UNL1        0.0265
     41 H          -6.8169    1.0123   -1.1605 H       1  UNL1        0.0265
     42 H          -4.6824    1.0671   -2.0104 H       1  UNL1        0.0272
     43 H          -4.3605    2.4660   -1.0659 H       1  UNL1        0.0272
     44 H           0.3275    1.3165   -0.1482 H       1  UNL1        0.0471
     45 H           0.2819    1.0465    1.5379 H       1  UNL1        0.0471
     46 H           3.0121   -2.3144    0.8405 H       1  UNL1        0.0683
     47 H           4.8078   -2.4125    2.4633 H       1  UNL1        0.1376
     48 H           6.4861   -0.7730    2.3604 H       1  UNL1        0.4542
@<TRIPOS>UNITY_ATOM_ATTR
24 1
charge 1
@<TRIPOS>BOND
     1     1     2    1
     2     2     3   ar
     3     2    24   ar
     4     3     4   ar
     5     4     5    1
     6     4    22   ar
     7     5     6   ar
     8     5     9   ar
     9     6     7   ar
    10     7     8   ar
    11     8     9   ar
    12     9    10    1
    13    10    11    1
    14    10    21    1
    15    11    12    1
    16    12    13    1
    17    13    14   am
    18    13    21    1
    19    14    15    2
    20    14    16    1
    21    16    17    1
    22    16    20    1
    23    17    18    1
    24    18    19    1
    25    19    20    1
    26    22    23   ar
    27    23    24   ar
    28     1    25    1
    29     1    26    1
    30     3    27    1
    31     6    28    1
    32     7    29    1
    33    10    30    1
    34    11    31    1
    35    11    32    1
    36    12    33    1
    37    12    34    1
    38    16    35    1
    39    17    36    1
    40    17    37    1
    41    18    38    1
    42    18    39    1
    43    19    40    1
    44    19    41    1
    45    20    42    1
    46    20    43    1
    47    21    44    1
    48    21    45    1
    49    22    46    1
    50    23    47    1
    51    24    48    1
@<TRIPOS>MOLECULE
../data/bude_mols_rdkit_confs_charged/molecule_6.pdb
 48 51 0 0 0
SMALL
GASTEIGER

@<TRIPOS>ATOM
      1  N1        -4.5380    3.1750    0.2350 N.pl3   1  UNL1       -0.3056
      2  C1        -4.3940    1.8210    0.6670 C.ar    1  UNL1        0.2672
      3  C2        -3.7480    0.9220   -0.1700 C.ar    1  UNL1        0.0337
      4  C3        -3.5870   -0.3920    0.2070 C.ar    1  UNL1       -0.0015
      5  C4        -2.9190   -1.3950   -0.6050 C.ar    1  UNL1        0.0233
      6  C5        -3.4570   -2.6620   -0.8710 C.ar    1  UNL1        0.0303
      7  N2        -2.5780   -3.3040   -1.6440 N.ar    1  UNL1       -0.2839
      8  N3        -1.5480   -2.5220   -1.8650 N.ar    1  UNL1       -0.1779
      9  C6        -1.7060   -1.3350   -1.2480 C.ar    1  UNL1        0.0751
     10  C7        -0.7690   -0.1870   -1.2480 C.3     1  UNL1        0.0208
     11  C8         0.4880   -0.6470   -2.0080 C.3     1  UNL1       -0.0274
     12  C9         1.2470   -1.2770   -0.8270 C.3     1  UNL1        0.0153
     13  N4         1.1190   -0.2160    0.1300 N.am    1  UNL1       -0.3006
     14  C10        2.1500    0.3850    0.8700 C.2     1  UNL1        0.2187
     15  O1         1.8840    1.3150    1.7190 O.2     1  UNL1       -0.2753
     16  C11        3.5810    0.0230    0.7470 C.3     1  UNL1        0.0358
     17  C12        4.2280    0.4870   -0.5200 C.3     1  UNL1       -0.0419
     18  C13        5.7210    0.3480   -0.1880 C.3     1  UNL1       -0.0523
     19  C14        5.7980    0.8120    1.2380 C.3     1  UNL1       -0.0523
     20  C15        4.4040    0.7560    1.7960 C.3     1  UNL1       -0.0419
     21  C16       -0.2850    0.1170    0.1740 C.3     1  UNL1        0.0230
     22  C17       -4.1110   -0.7170    1.4520 C.ar    1  UNL1        0.0100
     23  C18       -4.7470    0.1870    2.2670 C.ar    1  UNL1        0.1716
     24  N5        -4.8840    1.4670    1.8600 N.ar    1  UNL1       -0.1984
     25 H          -4.1832    3.4528   -0.6403 H       1  UNL1        0.1477
     26 H          -4.9920    3.8303    0.8126 H       1  UNL1        0.1477
     27 H          -3.3856    1.2411   -1.0820 H       1  UNL1        0.0704
     28 H          -4.3607   -3.0287   -0.5334 H       1  UNL1        0.0830
     29 H          -2.6856   -4.2184   -1.9926 H       1  UNL1        0.1882
     30 H          -1.2566    0.6663   -1.6712 H       1  UNL1        0.0380
     31 H           1.0220    0.1739   -2.4392 H       1  UNL1        0.0287
     32 H           0.3163   -1.2887   -2.8468 H       1  UNL1        0.0287
     33 H           2.2703   -1.4742   -1.0698 H       1  UNL1        0.0465
     34 H           0.8784   -2.2282   -0.5043 H       1  UNL1        0.0465
     35 H           3.5736   -1.0442    0.8234 H       1  UNL1        0.0394
     36 H           3.9714    1.5027   -0.7378 H       1  UNL1        0.0272
     37 H           3.9260   -0.0654   -1.3852 H       1  UNL1        0.0272
     38 H           6.3156    0.9678   -0.8261 H       1  UNL1        0.0265
     39 H           6.0918   -0.6460   -0.3272 H       1  UNL1        0.0265
     40 H           6.1696    1.8146    1.2783 H       1  UNL1        0.0265
     41 H           6.4607    0.1923    1.8052 H       1  UNL1        0.0265
     42 H           4.3924    0.2210    2.7226 H       1  UNL1        0.0272
     43 H           4.0153    1.7324    1.9974 H       1  UNL1        0.0272
     44 H          -0.7994   -0.4883    0.8908 H       1  UNL1        0.0471
     45 H          -0.4642    1.1302    0.4678 H       1  UNL1        0.0471
     46 H          -4.0172   -1.6903    1.7822 H       1  UNL1        0.0683
     47 H          -5.1173   -0.1098    3.1834 H       1  UNL1        0.1376
     48 H          -5.3368    2.1284    2.4316 H       1  UNL1        0.4542
@<TRIPOS>UNITY_ATOM_ATTR
24 1
charge 1
@<TRIPOS>BOND
     1     1     2    1
     2     2     3   ar
     3     2    24   ar
     4     3     4   ar
     5     4     5    1
     6     4    22   ar
     7     5     6   ar
     8     5     9   ar
     9     6     7   ar
    10     7     8   ar
    11     8     9   ar
    12     9    10    1
    13    10    11    1
    14    10    21    1
    15    11    12    1
    16    12    13    1
    17    13    14   am
    18    13    21    1
    19    14    15    2
    20    14    16    1
    21    16    17    1
    22    16    20    1
    23    17    18    1
    24    18    19    1
    25    19    20    1
    26    22    23   ar
    27    23    24   ar
    28     1    25    1
    29     1    26    1
    30     3    27    1
    31     6    28    1
    32     7    29    1
    33    10    30    1
    34    11    31    1
    35    11    32    1
    36    12    33    1
    37    12    34    1
    38    16    35    1
    39    17    36    1
    40    17    37    1
    41    18    38    1
    42    18    39    1
    43    19    40    1
    44    19    41    1
    45    20    42    1
    46    20    43    1
    47    21    44    1
    48    21    45    1
    49    22    46    1
    50    23    47    1
    51    24    48    1
@<TRIPOS>MOLECULE
../data/bude_mols_rdkit_confs_charged/molecule_6.pdb
 48 51 0 0 0
SMALL
GASTEIGER

@<TRIPOS>ATOM
      1  N1        -5.4180    2.4210    1.4390 N.pl3   1  UNL1       -0.3056
      2  C1        -4.7880    1.6150    0.4530 C.ar    1  UNL1        0.2672
      3  C2        -4.1260    0.4510    0.8550 C.ar    1  UNL1        0.0337
      4  C3        -3.5170   -0.3320   -0.0970 C.ar    1  UNL1       -0.0015
      5  C4        -2.8520   -1.5630    0.3220 C.ar    1  UNL1        0.0233
      6  C5        -3.4460   -2.5870    1.0740 C.ar    1  UNL1        0.0303
      7  N2        -2.5310   -3.5500    1.2150 N.ar    1  UNL1       -0.2839
      8  N3        -1.4290   -3.1750    0.6010 N.ar    1  UNL1       -0.1779
      9  C6        -1.5770   -1.9620    0.0380 C.ar    1  UNL1        0.0751
     10  C7        -0.5220   -1.2250   -0.7050 C.3     1  UNL1        0.0208
     11  C8         0.5730   -2.2080   -1.0420 C.3     1  UNL1       -0.0274
     12  C9         1.7470   -1.7130   -0.2360 C.3     1  UNL1        0.0153
     13  N4         1.5140   -0.2900   -0.2130 N.am    1  UNL1       -0.3006
     14  C10        2.4190    0.7270   -0.5040 C.2     1  UNL1        0.2187
     15  O1         2.0500    1.9230   -0.4300 O.2     1  UNL1       -0.2753
     16  C11        3.7970    0.4090   -0.8950 C.3     1  UNL1        0.0358
     17  C12        4.5160    1.7220   -1.1940 C.3     1  UNL1       -0.0419
     18  C13        4.9320    2.2280    0.1580 C.3     1  UNL1       -0.0523
     19  C14        4.7710    1.0770    1.1310 C.3     1  UNL1       -0.0523
     20  C15        4.6590   -0.1140    0.2180 C.3     1  UNL1       -0.0419
     21  C16        0.1230   -0.1590    0.1740 C.3     1  UNL1        0.0230
     22  C17       -3.5990    0.0910   -1.4040 C.ar    1  UNL1        0.0100
     23  C18       -4.2590    1.2460   -1.7640 C.ar    1  UNL1        0.1716
     24  N5        -4.8550    2.0080   -0.8300 N.ar    1  UNL1       -0.1984
     25 H          -5.3841    2.1561    2.3866 H       1  UNL1        0.1477
     26 H          -5.8884    3.2444    1.1746 H       1  UNL1        0.1477
     27 H          -4.0949    0.1836    1.8513 H       1  UNL1        0.0704
     28 H          -4.4079   -2.5950    1.4477 H       1  UNL1        0.0830
     29 H          -2.6595   -4.3984    1.6976 H       1  UNL1        0.1882
     30 H          -0.9651   -0.7722   -1.5673 H       1  UNL1        0.0380
     31 H           0.7932   -2.1918   -2.0890 H       1  UNL1        0.0287
     32 H           0.3092   -3.2204   -0.8175 H       1  UNL1        0.0287
     33 H           2.6745   -1.9477   -0.7151 H       1  UNL1        0.0465
     34 H           1.8209   -2.1545    0.7359 H       1  UNL1        0.0465
     35 H           3.6937   -0.3024   -1.6876 H       1  UNL1        0.0394
     36 H           3.8568    2.4156   -1.6728 H       1  UNL1        0.0272
     37 H           5.3455    1.5941   -1.8577 H       1  UNL1        0.0272
     38 H           4.3091    3.0470    0.4514 H       1  UNL1        0.0265
     39 H           5.9441    2.5748    0.1410 H       1  UNL1        0.0265
     40 H           3.8878    1.1933    1.7237 H       1  UNL1        0.0265
     41 H           5.5740    0.9994    1.8339 H       1  UNL1        0.0265
     42 H           5.6196   -0.4142   -0.1454 H       1  UNL1        0.0272
     43 H           4.2567   -0.9821    0.6970 H       1  UNL1        0.0272
     44 H          -0.0175   -0.3686    1.2138 H       1  UNL1        0.0471
     45 H          -0.2810    0.8235    0.0460 H       1  UNL1        0.0471
     46 H          -3.1506   -0.4765   -2.1402 H       1  UNL1        0.0683
     47 H          -4.2960    1.5277   -2.7561 H       1  UNL1        0.1376
     48 H          -5.3289    2.8338   -1.0803 H       1  UNL1        0.4542
@<TRIPOS>UNITY_ATOM_ATTR
24 1
charge 1
@<TRIPOS>BOND
     1     1     2    1
     2     2     3   ar
     3     2    24   ar
     4     3     4   ar
     5     4     5    1
     6     4    22   ar
     7     5     6   ar
     8     5     9   ar
     9     6     7   ar
    10     7     8   ar
    11     8     9   ar
    12     9    10    1
    13    10    11    1
    14    10    21    1
    15    11    12    1
    16    12    13    1
    17    13    14   am
    18    13    21    1
    19    14    15    2
    20    14    16    1
    21    16    17    1
    22    16    20    1
    23    17    18    1
    24    18    19    1
    25    19    20    1
    26    22    23   ar
    27    23    24   ar
    28     1    25    1
    29     1    26    1
    30     3    27    1
    31     6    28    1
    32     7    29    1
    33    10    30    1
    34    11    31    1
    35    11    32    1
    36    12    33    1
    37    12    34    1
    38    16    35    1
    39    17    36    1
    40    17    37    1
    41    18    38    1
    42    18    39    1
    43    19    40    1
    44    19    41    1
    45    20    42    1
    46    20    43    1
    47    21    44    1
    48    21    45    1
    49    22    46    1
    50    23    47    1
    51    24    48    1
@<TRIPOS>MOLECULE
../data/bude_mols_rdkit_confs_charged/molecule_6.pdb
 48 51 0 0 0
SMALL
GASTEIGER

@<TRIPOS>ATOM
      1  N1        -5.2810   -2.5790    0.1100 N.pl3   1  UNL1       -0.3056
      2  C1        -5.2070   -1.1630    0.1150 C.ar    1  UNL1        0.2672
      3  C2        -4.0030   -0.4790    0.2250 C.ar    1  UNL1        0.0337
      4  C3        -3.9190    0.8820    0.2340 C.ar    1  UNL1       -0.0015
      5  C4        -2.6710    1.5580    0.4910 C.ar    1  UNL1        0.0233
      6  C5        -2.5970    2.8010    1.1600 C.ar    1  UNL1        0.0303
      7  N2        -1.2910    3.0800    1.3660 N.ar    1  UNL1       -0.2839
      8  N3        -0.5650    2.1060    0.8710 N.ar    1  UNL1       -0.1779
      9  C6        -1.3890    1.1550    0.3220 C.ar    1  UNL1        0.0751
     10  C7        -0.9390   -0.0110   -0.5080 C.3     1  UNL1        0.0208
     11  C8        -0.3280   -1.0660    0.3980 C.3     1  UNL1       -0.0274
     12  C9         1.1160   -1.0120    0.4040 C.3     1  UNL1        0.0153
     13  N4         1.4720   -0.0590   -0.6490 N.am    1  UNL1       -0.3006
     14  C10        2.8470    0.1550   -0.9330 C.2     1  UNL1        0.2187
     15  O1         3.2690    0.9240   -1.8220 O.2     1  UNL1       -0.2753
     16  C11        3.9120   -0.5600   -0.1360 C.3     1  UNL1        0.0358
     17  C12        4.6950    0.3400    0.7580 C.3     1  UNL1       -0.0419
     18  C13        6.1060   -0.2240    0.6870 C.3     1  UNL1       -0.0523
     19  C14        6.2010   -0.6730   -0.7490 C.3     1  UNL1       -0.0523
     20  C15        4.8580   -1.3690   -0.9540 C.3     1  UNL1       -0.0419
     21  C16        0.3350    0.5300   -1.2570 C.3     1  UNL1        0.0230
     22  C17       -5.1350    1.5770    0.1200 C.ar    1  UNL1        0.0100
     23  C18       -6.3270    0.8830    0.0140 C.ar    1  UNL1        0.1716
     24  N5        -6.3610   -0.4590    0.0120 N.ar    1  UNL1       -0.1984
     25 H          -4.4586   -3.1152    0.1834 H       1  UNL1        0.1477
     26 H          -6.1548   -3.0260    0.0331 H       1  UNL1        0.1477
     27 H          -3.1316   -1.0263    0.3036 H       1  UNL1        0.0704
     28 H          -3.3968    3.3897    1.4407 H       1  UNL1        0.0830
     29 H          -0.9412    3.8835    1.8146 H       1  UNL1        0.1882
     30 H          -1.7445   -0.3876   -1.1032 H       1  UNL1        0.0380
     31 H          -0.6351   -2.0326    0.0569 H       1  UNL1        0.0287
     32 H          -0.6674   -0.8784    1.3953 H       1  UNL1        0.0287
     33 H           1.5279   -1.9764    0.1914 H       1  UNL1        0.0465
     34 H           1.4998   -0.7144    1.3574 H       1  UNL1        0.0465
     35 H           3.3381   -1.2334    0.4658 H       1  UNL1        0.0394
     36 H           4.3195    0.3047    1.7593 H       1  UNL1        0.0272
     37 H           4.6426    1.3672    0.4629 H       1  UNL1        0.0272
     38 H           6.2284   -1.0474    1.3593 H       1  UNL1        0.0265
     39 H           6.8628    0.4787    0.9670 H       1  UNL1        0.0265
     40 H           7.0161   -1.3515   -0.8910 H       1  UNL1        0.0265
     41 H           6.3832    0.1243   -1.4389 H       1  UNL1        0.0265
     42 H           4.5760   -1.3575   -1.9861 H       1  UNL1        0.0272
     43 H           4.8773   -2.3996   -0.6671 H       1  UNL1        0.0272
     44 H           0.3850    1.5952   -1.1692 H       1  UNL1        0.0471
     45 H           0.2936    0.2811   -2.2968 H       1  UNL1        0.0471
     46 H          -5.1388    2.6090    0.1153 H       1  UNL1        0.0683
     47 H          -7.2111    1.4094   -0.0654 H       1  UNL1        0.1376
     48 H          -7.2218   -0.9307   -0.0641 H       1  UNL1        0.4542
@<TRIPOS>UNITY_ATOM_ATTR
24 1
charge 1
@<TRIPOS>BOND
     1     1     2    1
     2     2     3   ar
     3     2    24   ar
     4     3     4   ar
     5     4     5    1
     6     4    22   ar
     7     5     6   ar
     8     5     9   ar
     9     6     7   ar
    10     7     8   ar
    11     8     9   ar
    12     9    10    1
    13    10    11    1
    14    10    21    1
    15    11    12    1
    16    12    13    1
    17    13    14   am
    18    13    21    1
    19    14    15    2
    20    14    16    1
    21    16    17    1
    22    16    20    1
    23    17    18    1
    24    18    19    1
    25    19    20    1
    26    22    23   ar
    27    23    24   ar
    28     1    25    1
    29     1    26    1
    30     3    27    1
    31     6    28    1
    32     7    29    1
    33    10    30    1
    34    11    31    1
    35    11    32    1
    36    12    33    1
    37    12    34    1
    38    16    35    1
    39    17    36    1
    40    17    37    1
    41    18    38    1
    42    18    39    1
    43    19    40    1
    44    19    41    1
    45    20    42    1
    46    20    43    1
    47    21    44    1
    48    21    45    1
    49    22    46    1
    50    23    47    1
    51    24    48    1
