@<TRIPOS>MOLECULE
../data/bude_mols_rdkit_confs_charged/molecule_79.pdb
 43 45 0 0 0
SMALL
GASTEIGER

@<TRIPOS>ATOM
      1  N1         8.0860    2.8260   -0.1040 N.2     1  UNL1       -0.2533
      2  C1         7.5970    1.7160   -0.3730 C.2     1  UNL1        0.2141
      3  C2         6.6460    0.9720   -0.6380 C.1     1  UNL1       -0.0046
      4  C3         5.5420    0.0970   -0.9230 C.1     1  UNL1       -0.0729
      5  C4         4.6240   -0.6570   -1.1670 C.3     1  UNL1        0.0743
      6  N2         3.4700   -1.0860   -0.5600 N.am    1  UNL1       -0.3004
      7  C5         2.1960   -0.3990   -0.3420 C.2     1  UNL1        0.2476
      8  O1         2.0870    0.7420   -0.5700 O.2     1  UNL1       -0.2701
      9  C6         1.0660   -1.2730    0.1270 C.ar    1  UNL1        0.0721
     10  C7        -0.0010   -0.6490    0.7770 C.ar    1  UNL1       -0.0433
     11  C8        -1.0870   -1.3450    1.2130 C.ar    1  UNL1       -0.0406
     12  C9        -2.2120   -0.7620    1.9460 C.3     1  UNL1        0.0171
     13  C10       -2.8050    0.3790    1.1940 C.ar    1  UNL1        0.0736
     14  N3        -2.0360    1.5300    1.3150 N.ar    1  UNL1       -0.1750
     15  N4        -2.4060    2.6580    0.7460 N.ar    1  UNL1       -0.2425
     16  C11       -3.5330    2.7020    0.0240 C.ar    1  UNL1        0.2725
     17  O2        -3.9670    3.7310   -0.5800 O.2     1  UNL1       -0.2658
     18  C12       -4.3660    1.5740   -0.1520 C.ar    1  UNL1        0.0496
     19  C13       -5.5230    1.6060   -0.8480 C.ar    1  UNL1       -0.0487
     20  C14       -6.3170    0.4620   -0.9510 C.ar    1  UNL1       -0.0610
     21  C15       -5.8910   -0.7050   -0.2980 C.ar    1  UNL1       -0.0611
     22  C16       -4.7250   -0.7670    0.4290 C.ar    1  UNL1       -0.0521
     23  C17       -3.9350    0.3940    0.4920 C.ar    1  UNL1        0.0106
     24  C18       -1.0400   -2.8110    0.9720 C.ar    1  UNL1       -0.0555
     25  C19        0.0010   -3.4110    0.3180 C.ar    1  UNL1       -0.0254
     26  C20        1.0250   -2.5300   -0.0830 C.ar    1  UNL1        0.1355
     27  F1         1.9230   -3.1750   -0.9690 F       1  UNL1       -0.2047
     28 H           9.0553    2.9141    0.0438 H       1  UNL1        0.4435
     29 H           7.5041    3.6175   -0.0387 H       1  UNL1        0.4435
     30 H           8.4123    1.0833   -0.3777 H       1  UNL1        0.1476
     31 H           5.1360   -1.5791   -1.3473 H       1  UNL1        0.0599
     32 H           4.1143    0.0565   -1.7802 H       1  UNL1        0.0599
     33 H           3.5050   -2.0072   -0.2145 H       1  UNL1        0.1499
     34 H           0.0347    0.3707    0.9316 H       1  UNL1        0.0629
     35 H          -1.8670   -0.4129    2.8968 H       1  UNL1        0.0377
     36 H          -2.9627   -1.5138    2.0727 H       1  UNL1        0.0377
     37 H          -1.8554    3.4674    0.8510 H       1  UNL1        0.1921
     38 H          -5.8220    2.4810   -1.3063 H       1  UNL1        0.0625
     39 H          -7.1948    0.4743   -1.4935 H       1  UNL1        0.0618
     40 H          -6.4769   -1.5518   -0.3661 H       1  UNL1        0.0618
     41 H          -4.4405   -1.6342    0.9106 H       1  UNL1        0.0624
     42 H          -1.8198   -3.3965    1.3098 H       1  UNL1        0.0621
     43 H           0.0337   -4.4258    0.1334 H       1  UNL1        0.0646
@<TRIPOS>UNITY_ATOM_ATTR
1 1
charge 1
@<TRIPOS>BOND
     1     1     2    2
     2     2     3    1
     3     3     4    3
     4     4     5    1
     5     5     6    1
     6     6     7   am
     7     7     8    2
     8     7     9    1
     9     9    10   ar
    10     9    26   ar
    11    10    11   ar
    12    11    12    1
    13    11    24   ar
    14    12    13    1
    15    13    14   ar
    16    13    23   ar
    17    14    15   ar
    18    15    16   ar
    19    16    17    2
    20    16    18   ar
    21    18    19   ar
    22    18    23   ar
    23    19    20   ar
    24    20    21   ar
    25    21    22   ar
    26    22    23   ar
    27    24    25   ar
    28    25    26   ar
    29    26    27    1
    30     1    28    1
    31     1    29    1
    32     2    30    1
    33     5    31    1
    34     5    32    1
    35     6    33    1
    36    10    34    1
    37    12    35    1
    38    12    36    1
    39    15    37    1
    40    19    38    1
    41    20    39    1
    42    21    40    1
    43    22    41    1
    44    24    42    1
    45    25    43    1
@<TRIPOS>MOLECULE
../data/bude_mols_rdkit_confs_charged/molecule_79.pdb
 43 45 0 0 0
SMALL
GASTEIGER

@<TRIPOS>ATOM
      1  N1        -8.0910    1.3160    1.5340 N.2     1  UNL1       -0.2533
      2  C1        -7.3390    0.8750    0.5930 C.2     1  UNL1        0.2141
      3  C2        -6.0690    1.6870    0.5810 C.1     1  UNL1       -0.0046
      4  C3        -4.9630    2.3680    0.5790 C.1     1  UNL1       -0.0729
      5  C4        -3.7280    3.1050    0.5890 C.3     1  UNL1        0.0743
      6  N2        -2.6180    2.0900    0.5760 N.am    1  UNL1       -0.3004
      7  C5        -2.6960    1.1980   -0.5110 C.2     1  UNL1        0.2476
      8  O1        -3.6360    1.2640   -1.3410 O.2     1  UNL1       -0.2701
      9  C6        -1.6440    0.1470   -0.6790 C.ar    1  UNL1        0.0721
     10  C7        -0.7380   -0.0430    0.3210 C.ar    1  UNL1       -0.0433
     11  C8         0.3880   -0.9000    0.1410 C.ar    1  UNL1       -0.0406
     12  C9         1.3750   -0.9360    1.2500 C.3     1  UNL1        0.0171
     13  C10        2.6590   -1.5710    0.9960 C.ar    1  UNL1        0.0736
     14  N3         2.8860   -2.8350    1.4390 N.ar    1  UNL1       -0.1750
     15  N4         4.0440   -3.3860    1.2670 N.ar    1  UNL1       -0.2425
     16  C11        5.0930   -2.7880    0.6610 C.ar    1  UNL1        0.2725
     17  O2         6.1850   -3.3500    0.5410 O.2     1  UNL1       -0.2658
     18  C12        4.9800   -1.5160    0.1720 C.ar    1  UNL1        0.0496
     19  C13        5.9990   -0.8350   -0.4210 C.ar    1  UNL1       -0.0487
     20  C14        5.7740    0.4850   -0.8590 C.ar    1  UNL1       -0.0610
     21  C15        4.6320    1.0730   -0.7300 C.ar    1  UNL1       -0.0611
     22  C16        3.5520    0.3720   -0.1060 C.ar    1  UNL1       -0.0521
     23  C17        3.6630   -0.9000    0.3700 C.ar    1  UNL1        0.0106
     24  C18        0.4880   -1.4960   -1.0650 C.ar    1  UNL1       -0.0555
     25  C19       -0.4240   -1.3350   -2.1260 C.ar    1  UNL1       -0.0254
     26  C20       -1.5180   -0.4710   -1.8780 C.ar    1  UNL1        0.1355
     27  F1        -2.4020   -0.3480   -2.8880 F       1  UNL1       -0.2047
     28 H          -8.9707    0.9043    1.6950 H       1  UNL1        0.4435
     29 H          -7.7885    2.0662    2.0952 H       1  UNL1        0.4435
     30 H          -7.5649    0.0972   -0.0466 H       1  UNL1        0.1476
     31 H          -3.6657    3.7081    1.4706 H       1  UNL1        0.0599
     32 H          -3.6626    3.7573   -0.2566 H       1  UNL1        0.0599
     33 H          -1.9090    2.0530    1.2581 H       1  UNL1        0.1499
     34 H          -0.8686    0.4409    1.2231 H       1  UNL1        0.0629
     35 H           0.9184   -1.4551    2.0666 H       1  UNL1        0.0377
     36 H           1.6139    0.0912    1.4310 H       1  UNL1        0.0377
     37 H           4.1693   -4.3038    1.6005 H       1  UNL1        0.1921
     38 H           6.9220   -1.2789   -0.5477 H       1  UNL1        0.0625
     39 H           6.5514    1.0013   -1.2996 H       1  UNL1        0.0618
     40 H           4.4996    2.0373   -1.0729 H       1  UNL1        0.0618
     41 H           2.6441    0.8535   -0.0118 H       1  UNL1        0.0624
     42 H           1.2959   -2.1185   -1.2224 H       1  UNL1        0.0621
     43 H          -0.3022   -1.8178   -3.0300 H       1  UNL1        0.0646
@<TRIPOS>UNITY_ATOM_ATTR
1 1
charge 1
@<TRIPOS>BOND
     1     1     2    2
     2     2     3    1
     3     3     4    3
     4     4     5    1
     5     5     6    1
     6     6     7   am
     7     7     8    2
     8     7     9    1
     9     9    10   ar
    10     9    26   ar
    11    10    11   ar
    12    11    12    1
    13    11    24   ar
    14    12    13    1
    15    13    14   ar
    16    13    23   ar
    17    14    15   ar
    18    15    16   ar
    19    16    17    2
    20    16    18   ar
    21    18    19   ar
    22    18    23   ar
    23    19    20   ar
    24    20    21   ar
    25    21    22   ar
    26    22    23   ar
    27    24    25   ar
    28    25    26   ar
    29    26    27    1
    30     1    28    1
    31     1    29    1
    32     2    30    1
    33     5    31    1
    34     5    32    1
    35     6    33    1
    36    10    34    1
    37    12    35    1
    38    12    36    1
    39    15    37    1
    40    19    38    1
    41    20    39    1
    42    21    40    1
    43    22    41    1
    44    24    42    1
    45    25    43    1
@<TRIPOS>MOLECULE
../data/bude_mols_rdkit_confs_charged/molecule_79.pdb
 43 45 0 0 0
SMALL
GASTEIGER

@<TRIPOS>ATOM
      1  N1         8.6890    0.3000   -3.0640 N.2     1  UNL1       -0.2533
      2  C1         8.4980    0.3380   -1.9000 C.2     1  UNL1        0.2141
      3  C2         7.3690   -0.0750   -1.1680 C.1     1  UNL1       -0.0046
      4  C3         6.3170   -0.4660   -0.4780 C.1     1  UNL1       -0.0729
      5  C4         5.1230   -0.9050    0.2820 C.3     1  UNL1        0.0743
      6  N2         3.9120   -0.4140   -0.3870 N.am    1  UNL1       -0.3004
      7  C5         2.6710   -0.6710    0.2240 C.2     1  UNL1        0.2476
      8  O1         2.7490   -1.3540    1.3340 O.2     1  UNL1       -0.2701
      9  C6         1.3610   -0.2790   -0.1970 C.ar    1  UNL1        0.0721
     10  C7         0.3670   -0.0110    0.7540 C.ar    1  UNL1       -0.0433
     11  C8        -0.8990    0.4230    0.4290 C.ar    1  UNL1       -0.0406
     12  C9        -1.7800    0.7490    1.5320 C.3     1  UNL1        0.0171
     13  C10       -3.1820    1.0900    1.2010 C.ar    1  UNL1        0.0736
     14  N3        -3.7890    2.0030    0.9960 N.ar    1  UNL1       -0.1750
     15  N4        -4.9400    2.6180    0.7310 N.ar    1  UNL1       -0.2425
     16  C11       -5.8950    1.4990    0.6940 C.ar    1  UNL1        0.2725
     17  O2        -7.0630    1.7860    0.4770 O.2     1  UNL1       -0.2658
     18  C12       -5.3880    0.2880    0.9030 C.ar    1  UNL1        0.0496
     19  C13       -6.2930   -0.8160    0.8290 C.ar    1  UNL1       -0.0487
     20  C14       -5.8520   -2.0920    1.0060 C.ar    1  UNL1       -0.0610
     21  C15       -4.5340   -2.4270    1.2650 C.ar    1  UNL1       -0.0611
     22  C16       -3.6180   -1.3270    1.3420 C.ar    1  UNL1       -0.0521
     23  C17       -4.0800   -0.1340    1.1670 C.ar    1  UNL1        0.0106
     24  C18       -1.2150    0.6070   -0.8910 C.ar    1  UNL1       -0.0555
     25  C19       -0.2670    0.3550   -1.8470 C.ar    1  UNL1       -0.0254
     26  C20        1.0060   -0.0820   -1.4940 C.ar    1  UNL1        0.1355
     27  F1         1.9060   -0.3050   -2.4570 F       1  UNL1       -0.2047
     28 H           9.5395    0.6299   -3.4343 H       1  UNL1        0.4435
     29 H           7.9979   -0.0616   -3.6647 H       1  UNL1        0.4435
     30 H           9.2696    0.7304   -1.3382 H       1  UNL1        0.1476
     31 H           5.1671   -0.5102    1.2755 H       1  UNL1        0.0599
     32 H           5.0995   -1.9739    0.3248 H       1  UNL1        0.0599
     33 H           3.9666    0.0798   -1.2369 H       1  UNL1        0.1499
     34 H           0.5960   -0.1461    1.7512 H       1  UNL1        0.0629
     35 H          -1.3572    1.5878    2.0444 H       1  UNL1        0.0377
     36 H          -1.8439   -0.1501    2.1085 H       1  UNL1        0.0377
     37 H          -5.1092    3.5782    0.5944 H       1  UNL1        0.1921
     38 H          -7.2927   -0.6439    0.6391 H       1  UNL1        0.0625
     39 H          -6.5427   -2.8563    0.9432 H       1  UNL1        0.0618
     40 H          -4.2307   -3.4049    1.3942 H       1  UNL1        0.0618
     41 H          -2.6160   -1.4844    1.5322 H       1  UNL1        0.0624
     42 H          -2.1563    0.9317   -1.1621 H       1  UNL1        0.0621
     43 H          -0.5002    0.4912   -2.8431 H       1  UNL1        0.0646
@<TRIPOS>UNITY_ATOM_ATTR
1 1
charge 1
@<TRIPOS>BOND
     1     1     2    2
     2     2     3    1
     3     3     4    3
     4     4     5    1
     5     5     6    1
     6     6     7   am
     7     7     8    2
     8     7     9    1
     9     9    10   ar
    10     9    26   ar
    11    10    11   ar
    12    11    12    1
    13    11    24   ar
    14    12    13    1
    15    13    14   ar
    16    13    23   ar
    17    14    15   ar
    18    15    16   ar
    19    16    17    2
    20    16    18   ar
    21    18    19   ar
    22    18    23   ar
    23    19    20   ar
    24    20    21   ar
    25    21    22   ar
    26    22    23   ar
    27    24    25   ar
    28    25    26   ar
    29    26    27    1
    30     1    28    1
    31     1    29    1
    32     2    30    1
    33     5    31    1
    34     5    32    1
    35     6    33    1
    36    10    34    1
    37    12    35    1
    38    12    36    1
    39    15    37    1
    40    19    38    1
    41    20    39    1
    42    21    40    1
    43    22    41    1
    44    24    42    1
    45    25    43    1
@<TRIPOS>MOLECULE
../data/bude_mols_rdkit_confs_charged/molecule_79.pdb
 43 45 0 0 0
SMALL
GASTEIGER

@<TRIPOS>ATOM
      1  N1         8.1650    0.5520    1.4680 N.2     1  UNL1       -0.2533
      2  C1         7.0080    0.0990    1.7710 C.2     1  UNL1        0.2141
      3  C2         6.0870   -0.6230    0.9840 C.1     1  UNL1       -0.0046
      4  C3         5.2870   -1.2690    0.2740 C.1     1  UNL1       -0.0729
      5  C4         4.3660   -2.0300   -0.5230 C.3     1  UNL1        0.0743
      6  N2         3.2450   -1.1060   -0.8260 N.am    1  UNL1       -0.3004
      7  C5         2.4430   -0.5880    0.2140 C.2     1  UNL1        0.2476
      8  O1         2.6640   -0.9420    1.4250 O.2     1  UNL1       -0.2701
      9  C6         1.3710    0.3370   -0.0660 C.ar    1  UNL1        0.0721
     10  C7         0.2490    0.3690    0.7460 C.ar    1  UNL1       -0.0433
     11  C8        -0.8190    1.1990    0.5520 C.ar    1  UNL1       -0.0406
     12  C9        -1.9960    1.1370    1.4360 C.3     1  UNL1        0.0171
     13  C10       -3.2730    1.0710    0.7290 C.ar    1  UNL1        0.0736
     14  N3        -4.0430    2.1840    0.6120 N.ar    1  UNL1       -0.1750
     15  N4        -5.1750    2.1640   -0.0380 N.ar    1  UNL1       -0.2425
     16  C11       -5.6970    1.0790   -0.6480 C.ar    1  UNL1        0.2725
     17  O2        -6.7820    1.1160   -1.2540 O.2     1  UNL1       -0.2658
     18  C12       -4.9500   -0.0790   -0.5550 C.ar    1  UNL1        0.0496
     19  C13       -5.3960   -1.2360   -1.1420 C.ar    1  UNL1       -0.0487
     20  C14       -4.6990   -2.4110   -1.0850 C.ar    1  UNL1       -0.0610
     21  C15       -3.4770   -2.4030   -0.3840 C.ar    1  UNL1       -0.0611
     22  C16       -3.0190   -1.2620    0.2040 C.ar    1  UNL1       -0.0521
     23  C17       -3.7290   -0.0750    0.1420 C.ar    1  UNL1        0.0106
     24  C18       -0.7540    2.0540   -0.5280 C.ar    1  UNL1       -0.0555
     25  C19        0.3470    2.0420   -1.3490 C.ar    1  UNL1       -0.0254
     26  C20        1.4230    1.2000   -1.1490 C.ar    1  UNL1        0.1355
     27  F1         2.4810    1.2470   -1.9920 F       1  UNL1       -0.2047
     28 H           8.6926    1.0429    2.1388 H       1  UNL1        0.4435
     29 H           8.5281    0.4098    0.5640 H       1  UNL1        0.4435
     30 H           6.7020    0.2908    2.7377 H       1  UNL1        0.1476
     31 H           4.0128   -2.8798    0.0230 H       1  UNL1        0.0599
     32 H           4.8261   -2.4012   -1.4149 H       1  UNL1        0.0599
     33 H           3.0592   -0.8524   -1.7590 H       1  UNL1        0.1499
     34 H           0.2177   -0.2766    1.5505 H       1  UNL1        0.0629
     35 H          -1.9988    2.0112    2.0529 H       1  UNL1        0.0377
     36 H          -1.9096    0.2319    2.0001 H       1  UNL1        0.0377
     37 H          -5.6866    3.0037   -0.0869 H       1  UNL1        0.1921
     38 H          -6.2954   -1.2188   -1.6478 H       1  UNL1        0.0625
     39 H          -5.0535   -3.2684   -1.5369 H       1  UNL1        0.0618
     40 H          -2.9226   -3.2707   -0.3150 H       1  UNL1        0.0618
     41 H          -2.1192   -1.2833    0.7088 H       1  UNL1        0.0624
     42 H          -1.5330    2.7032   -0.7194 H       1  UNL1        0.0621
     43 H           0.3712    2.6911   -2.1510 H       1  UNL1        0.0646
@<TRIPOS>UNITY_ATOM_ATTR
1 1
charge 1
@<TRIPOS>BOND
     1     1     2    2
     2     2     3    1
     3     3     4    3
     4     4     5    1
     5     5     6    1
     6     6     7   am
     7     7     8    2
     8     7     9    1
     9     9    10   ar
    10     9    26   ar
    11    10    11   ar
    12    11    12    1
    13    11    24   ar
    14    12    13    1
    15    13    14   ar
    16    13    23   ar
    17    14    15   ar
    18    15    16   ar
    19    16    17    2
    20    16    18   ar
    21    18    19   ar
    22    18    23   ar
    23    19    20   ar
    24    20    21   ar
    25    21    22   ar
    26    22    23   ar
    27    24    25   ar
    28    25    26   ar
    29    26    27    1
    30     1    28    1
    31     1    29    1
    32     2    30    1
    33     5    31    1
    34     5    32    1
    35     6    33    1
    36    10    34    1
    37    12    35    1
    38    12    36    1
    39    15    37    1
    40    19    38    1
    41    20    39    1
    42    21    40    1
    43    22    41    1
    44    24    42    1
    45    25    43    1
@<TRIPOS>MOLECULE
../data/bude_mols_rdkit_confs_charged/molecule_79.pdb
 43 45 0 0 0
SMALL
GASTEIGER

@<TRIPOS>ATOM
      1  N1         6.3570   -0.1830    3.7560 N.2     1  UNL1       -0.2533
      2  C1         5.4960   -0.5810    2.8660 C.2     1  UNL1        0.2141
      3  C2         5.4400   -0.0120    1.5560 C.1     1  UNL1       -0.0046
      4  C3         5.3730    0.4640    0.4620 C.1     1  UNL1       -0.0729
      5  C4         5.3100    1.0300   -0.8800 C.3     1  UNL1        0.0743
      6  N2         4.1450    0.4830   -1.6060 N.am    1  UNL1       -0.3004
      7  C5         2.8470    0.6590   -1.1340 C.2     1  UNL1        0.2476
      8  O1         2.7350    1.3210   -0.0420 O.2     1  UNL1       -0.2701
      9  C6         1.6650    0.1600   -1.7770 C.ar    1  UNL1        0.0721
     10  C7         0.4120    0.5170   -1.2450 C.ar    1  UNL1       -0.0433
     11  C8        -0.7650    0.0830   -1.8130 C.ar    1  UNL1       -0.0406
     12  C9        -2.0250    0.4990   -1.2010 C.3     1  UNL1        0.0171
     13  C10       -2.5430   -0.3940   -0.1570 C.ar    1  UNL1        0.0736
     14  N3        -1.9530   -1.5150    0.2510 N.ar    1  UNL1       -0.1750
     15  N4        -2.4980   -2.2460    1.1940 N.ar    1  UNL1       -0.2425
     16  C11       -3.6510   -1.9350    1.8030 C.ar    1  UNL1        0.2725
     17  O2        -4.1630   -2.6470    2.7080 O.2     1  UNL1       -0.2658
     18  C12       -4.3070   -0.7950    1.4290 C.ar    1  UNL1        0.0496
     19  C13       -5.5090   -0.4180    2.0240 C.ar    1  UNL1       -0.0487
     20  C14       -6.1600    0.7330    1.6390 C.ar    1  UNL1       -0.0610
     21  C15       -5.5970    1.5210    0.6400 C.ar    1  UNL1       -0.0611
     22  C16       -4.4070    1.1360    0.0590 C.ar    1  UNL1       -0.0521
     23  C17       -3.7300   -0.0290    0.4370 C.ar    1  UNL1        0.0106
     24  C18       -0.7490   -0.7230   -2.9310 C.ar    1  UNL1       -0.0555
     25  C19        0.4560   -1.0950   -3.4820 C.ar    1  UNL1       -0.0254
     26  C20        1.6520   -0.6430   -2.8900 C.ar    1  UNL1        0.1355
     27  F1         2.7980   -1.0520   -3.4770 F       1  UNL1       -0.2047
     28 H           6.3684   -0.5966    4.6493 H       1  UNL1        0.4435
     29 H           6.9973    0.5318    3.5363 H       1  UNL1        0.4435
     30 H           4.8322   -1.3314    3.1136 H       1  UNL1        0.1476
     31 H           6.2058    0.7834   -1.4108 H       1  UNL1        0.0599
     32 H           5.2111    2.0930   -0.8082 H       1  UNL1        0.0599
     33 H           4.2898   -0.0168   -2.4417 H       1  UNL1        0.1499
     34 H           0.3743    1.1194   -0.4079 H       1  UNL1        0.0629
     35 H          -2.7616    0.5651   -1.9743 H       1  UNL1        0.0377
     36 H          -1.8241    1.4322   -0.7177 H       1  UNL1        0.0377
     37 H          -2.0342   -3.0694    1.4700 H       1  UNL1        0.1921
     38 H          -5.9176   -1.0099    2.7641 H       1  UNL1        0.0625
     39 H          -7.0502    1.0063    2.0839 H       1  UNL1        0.0618
     40 H          -6.0669    2.3880    0.3358 H       1  UNL1        0.0618
     41 H          -4.0008    1.7288   -0.6817 H       1  UNL1        0.0624
     42 H          -1.6344   -1.0453   -3.3520 H       1  UNL1        0.0621
     43 H           0.4833   -1.6980   -4.3191 H       1  UNL1        0.0646
@<TRIPOS>UNITY_ATOM_ATTR
1 1
charge 1
@<TRIPOS>BOND
     1     1     2    2
     2     2     3    1
     3     3     4    3
     4     4     5    1
     5     5     6    1
     6     6     7   am
     7     7     8    2
     8     7     9    1
     9     9    10   ar
    10     9    26   ar
    11    10    11   ar
    12    11    12    1
    13    11    24   ar
    14    12    13    1
    15    13    14   ar
    16    13    23   ar
    17    14    15   ar
    18    15    16   ar
    19    16    17    2
    20    16    18   ar
    21    18    19   ar
    22    18    23   ar
    23    19    20   ar
    24    20    21   ar
    25    21    22   ar
    26    22    23   ar
    27    24    25   ar
    28    25    26   ar
    29    26    27    1
    30     1    28    1
    31     1    29    1
    32     2    30    1
    33     5    31    1
    34     5    32    1
    35     6    33    1
    36    10    34    1
    37    12    35    1
    38    12    36    1
    39    15    37    1
    40    19    38    1
    41    20    39    1
    42    21    40    1
    43    22    41    1
    44    24    42    1
    45    25    43    1
@<TRIPOS>MOLECULE
../data/bude_mols_rdkit_confs_charged/molecule_79.pdb
 43 45 0 0 0
SMALL
GASTEIGER

@<TRIPOS>ATOM
      1  N1         5.3020   -3.2150    2.1360 N.2     1  UNL1       -0.2533
      2  C1         5.5550   -3.3670    0.9360 C.2     1  UNL1        0.2141
      3  C2         4.4440   -3.6660    0.0080 C.1     1  UNL1       -0.0046
      4  C3         3.5320   -3.9320   -0.7520 C.1     1  UNL1       -0.0729
      5  C4         2.4310   -4.2770   -1.6920 C.3     1  UNL1        0.0743
      6  N2         1.9310   -2.9490   -2.1180 N.am    1  UNL1       -0.3004
      7  C5         1.3920   -2.0500   -1.1760 C.2     1  UNL1        0.2476
      8  O1         1.3240   -2.4710    0.0400 O.2     1  UNL1       -0.2701
      9  C6         0.9290   -0.7230   -1.4540 C.ar    1  UNL1        0.0721
     10  C7         0.5880    0.0990   -0.3700 C.ar    1  UNL1       -0.0433
     11  C8         0.2730    1.4090   -0.4640 C.ar    1  UNL1       -0.0406
     12  C9        -0.0650    2.3180    0.6460 C.3     1  UNL1        0.0171
     13  C10       -1.4860    2.7070    0.6480 C.ar    1  UNL1        0.0736
     14  N3        -1.7920    3.9000    0.0350 N.ar    1  UNL1       -0.1750
     15  N4        -3.0160    4.3370   -0.0470 N.ar    1  UNL1       -0.2425
     16  C11       -4.0750    3.6950    0.4410 C.ar    1  UNL1        0.2725
     17  O2        -5.2570    4.0830    0.3810 O.2     1  UNL1       -0.2658
     18  C12       -3.8330    2.4830    1.0730 C.ar    1  UNL1        0.0496
     19  C13       -4.8340    1.7310    1.6160 C.ar    1  UNL1       -0.0487
     20  C14       -4.6290    0.5060    2.2630 C.ar    1  UNL1       -0.0610
     21  C15       -3.3170    0.0710    2.3310 C.ar    1  UNL1       -0.0611
     22  C16       -2.2750    0.8030    1.7940 C.ar    1  UNL1       -0.0521
     23  C17       -2.5250    2.0020    1.1680 C.ar    1  UNL1        0.0106
     24  C18        0.2880    1.9750   -1.7480 C.ar    1  UNL1       -0.0555
     25  C19        0.6130    1.1930   -2.8340 C.ar    1  UNL1       -0.0254
     26  C20        0.9270   -0.1300   -2.6930 C.ar    1  UNL1        0.1355
     27  F1         1.2370   -0.8920   -3.7990 F       1  UNL1       -0.2047
     28 H           6.0277   -3.0153    2.7706 H       1  UNL1        0.4435
     29 H           4.3748   -3.2936    2.4574 H       1  UNL1        0.4435
     30 H           6.5234   -3.2867    0.5884 H       1  UNL1        0.1476
     31 H           1.6644   -4.8366   -1.1981 H       1  UNL1        0.0599
     32 H           2.7495   -4.8905   -2.5088 H       1  UNL1        0.0599
     33 H           1.9757   -2.6923   -3.0674 H       1  UNL1        0.1499
     34 H           0.5770   -0.3288    0.5691 H       1  UNL1        0.0629
     35 H           0.5320    3.2017    0.5590 H       1  UNL1        0.0377
     36 H           0.1297    1.7983    1.5608 H       1  UNL1        0.0377
     37 H          -3.1679    5.1981   -0.4993 H       1  UNL1        0.1921
     38 H          -5.8003    2.0865    1.5456 H       1  UNL1        0.0625
     39 H          -5.4083   -0.0387    2.6643 H       1  UNL1        0.0618
     40 H          -3.1106   -0.8266    2.7965 H       1  UNL1        0.0618
     41 H          -1.3079    0.4495    1.8628 H       1  UNL1        0.0624
     42 H           0.0566    2.9723   -1.8778 H       1  UNL1        0.0621
     43 H           0.6197    1.6153   -3.7756 H       1  UNL1        0.0646
@<TRIPOS>UNITY_ATOM_ATTR
1 1
charge 1
@<TRIPOS>BOND
     1     1     2    2
     2     2     3    1
     3     3     4    3
     4     4     5    1
     5     5     6    1
     6     6     7   am
     7     7     8    2
     8     7     9    1
     9     9    10   ar
    10     9    26   ar
    11    10    11   ar
    12    11    12    1
    13    11    24   ar
    14    12    13    1
    15    13    14   ar
    16    13    23   ar
    17    14    15   ar
    18    15    16   ar
    19    16    17    2
    20    16    18   ar
    21    18    19   ar
    22    18    23   ar
    23    19    20   ar
    24    20    21   ar
    25    21    22   ar
    26    22    23   ar
    27    24    25   ar
    28    25    26   ar
    29    26    27    1
    30     1    28    1
    31     1    29    1
    32     2    30    1
    33     5    31    1
    34     5    32    1
    35     6    33    1
    36    10    34    1
    37    12    35    1
    38    12    36    1
    39    15    37    1
    40    19    38    1
    41    20    39    1
    42    21    40    1
    43    22    41    1
    44    24    42    1
    45    25    43    1
@<TRIPOS>MOLECULE
../data/bude_mols_rdkit_confs_charged/molecule_79.pdb
 43 45 0 0 0
SMALL
GASTEIGER

@<TRIPOS>ATOM
      1  N1         5.3810   -0.9930   -3.2640 N.2     1  UNL1       -0.2533
      2  C1         4.9200   -0.1960   -2.3790 C.2     1  UNL1        0.2141
      3  C2         4.0640    0.9230   -2.6370 C.1     1  UNL1       -0.0046
      4  C3         3.3420    1.8930   -2.8700 C.1     1  UNL1       -0.0729
      5  C4         2.4770    3.0620   -3.1250 C.3     1  UNL1        0.0743
      6  N2         1.4340    3.1410   -2.0980 N.am    1  UNL1       -0.3004
      7  C5         0.5340    2.0710   -1.9540 C.2     1  UNL1        0.2476
      8  O1         0.6960    1.0920   -2.7410 O.2     1  UNL1       -0.2701
      9  C6        -0.5240    2.0660   -0.9670 C.ar    1  UNL1        0.0721
     10  C7        -1.1900    0.8530   -0.7310 C.ar    1  UNL1       -0.0433
     11  C8        -2.1920    0.6930    0.1960 C.ar    1  UNL1       -0.0406
     12  C9        -2.8860   -0.6090    0.3770 C.3     1  UNL1        0.0171
     13  C10       -2.0480   -1.6800    0.9120 C.ar    1  UNL1        0.0736
     14  N3        -1.4670   -2.5440    0.0220 N.ar    1  UNL1       -0.1750
     15  N4        -0.6540   -3.4950    0.4240 N.ar    1  UNL1       -0.2425
     16  C11       -0.3700   -3.6480    1.7130 C.ar    1  UNL1        0.2725
     17  O2         0.4190   -4.5640    2.1330 O.2     1  UNL1       -0.2658
     18  C12       -0.8990   -2.8390    2.6850 C.ar    1  UNL1        0.0496
     19  C13       -0.6230   -2.9950    4.0200 C.ar    1  UNL1       -0.0487
     20  C14       -1.2150   -2.1380    4.9250 C.ar    1  UNL1       -0.0610
     21  C15       -2.0780   -1.1360    4.4840 C.ar    1  UNL1       -0.0611
     22  C16       -2.3600   -0.9720    3.1600 C.ar    1  UNL1       -0.0521
     23  C17       -1.7720   -1.8220    2.2360 C.ar    1  UNL1        0.0106
     24  C18       -2.5260    1.8210    0.9090 C.ar    1  UNL1       -0.0555
     25  C19       -1.9000    3.0250    0.7070 C.ar    1  UNL1       -0.0254
     26  C20       -0.8870    3.1620   -0.2380 C.ar    1  UNL1        0.1355
     27  F1        -0.3240    4.3890   -0.3960 F       1  UNL1       -0.2047
     28 H           5.9651   -1.7395   -2.9978 H       1  UNL1        0.4435
     29 H           5.1523   -0.8609   -4.2124 H       1  UNL1        0.4435
     30 H           5.1860   -0.3727   -1.3976 H       1  UNL1        0.1476
     31 H           2.0208    2.9631   -4.0878 H       1  UNL1        0.0599
     32 H           3.0692    3.9527   -3.0966 H       1  UNL1        0.0599
     33 H           1.3648    3.9328   -1.5170 H       1  UNL1        0.1499
     34 H          -0.9099    0.0306   -1.2880 H       1  UNL1        0.0629
     35 H          -3.2594   -0.9226   -0.5754 H       1  UNL1        0.0377
     36 H          -3.6583   -0.4414    1.0984 H       1  UNL1        0.0377
     37 H          -0.2504   -4.1016   -0.2381 H       1  UNL1        0.1921
     38 H           0.0155   -3.7394    4.3412 H       1  UNL1        0.0625
     39 H          -1.0180   -2.2393    5.9329 H       1  UNL1        0.0618
     40 H          -2.5130   -0.5045    5.1747 H       1  UNL1        0.0618
     41 H          -3.0020   -0.2258    2.8502 H       1  UNL1        0.0624
     42 H          -3.2721    1.7596    1.6193 H       1  UNL1        0.0621
     43 H          -2.1854    3.8443    1.2659 H       1  UNL1        0.0646
@<TRIPOS>UNITY_ATOM_ATTR
1 1
charge 1
@<TRIPOS>BOND
     1     1     2    2
     2     2     3    1
     3     3     4    3
     4     4     5    1
     5     5     6    1
     6     6     7   am
     7     7     8    2
     8     7     9    1
     9     9    10   ar
    10     9    26   ar
    11    10    11   ar
    12    11    12    1
    13    11    24   ar
    14    12    13    1
    15    13    14   ar
    16    13    23   ar
    17    14    15   ar
    18    15    16   ar
    19    16    17    2
    20    16    18   ar
    21    18    19   ar
    22    18    23   ar
    23    19    20   ar
    24    20    21   ar
    25    21    22   ar
    26    22    23   ar
    27    24    25   ar
    28    25    26   ar
    29    26    27    1
    30     1    28    1
    31     1    29    1
    32     2    30    1
    33     5    31    1
    34     5    32    1
    35     6    33    1
    36    10    34    1
    37    12    35    1
    38    12    36    1
    39    15    37    1
    40    19    38    1
    41    20    39    1
    42    21    40    1
    43    22    41    1
    44    24    42    1
    45    25    43    1
@<TRIPOS>MOLECULE
../data/bude_mols_rdkit_confs_charged/molecule_79.pdb
 43 45 0 0 0
SMALL
GASTEIGER

@<TRIPOS>ATOM
      1  N1         6.7270    0.0280   -2.5720 N.2     1  UNL1       -0.2533
      2  C1         5.8000   -0.8970   -2.3930 C.2     1  UNL1        0.2141
      3  C2         5.2120   -0.9780   -1.0660 C.1     1  UNL1       -0.0046
      4  C3         4.7230   -1.0320    0.0720 C.1     1  UNL1       -0.0729
      5  C4         4.1470   -1.0890    1.4770 C.3     1  UNL1        0.0743
      6  N2         2.8250   -0.6320    1.4550 N.am    1  UNL1       -0.3004
      7  C5         2.5580    0.7140    1.0000 C.2     1  UNL1        0.2476
      8  O1         3.5720    1.3990    0.6160 O.2     1  UNL1       -0.2701
      9  C6         1.2350    1.2840    0.9780 C.ar    1  UNL1        0.0721
     10  C7         0.1330    0.7000    1.5550 C.ar    1  UNL1       -0.0433
     11  C8        -1.1110    1.2700    1.5980 C.ar    1  UNL1       -0.0406
     12  C9        -2.3360    0.6510    2.1390 C.3     1  UNL1        0.0171
     13  C10       -3.3010    0.5890    0.9750 C.ar    1  UNL1        0.0736
     14  N3        -4.1450    1.6320    0.7640 N.ar    1  UNL1       -0.1750
     15  N4        -4.8960    1.6470   -0.3090 N.ar    1  UNL1       -0.2425
     16  C11       -4.8830    0.6480   -1.2500 C.ar    1  UNL1        0.2725
     17  O2        -5.6230    0.7090   -2.2430 O.2     1  UNL1       -0.2658
     18  C12       -4.0260   -0.4490   -1.0670 C.ar    1  UNL1        0.0496
     19  C13       -3.9800   -1.4550   -1.9730 C.ar    1  UNL1       -0.0487
     20  C14       -3.1130   -2.5520   -1.7850 C.ar    1  UNL1       -0.0610
     21  C15       -2.3470   -2.5170   -0.6440 C.ar    1  UNL1       -0.0611
     22  C16       -2.3990   -1.5030    0.2600 C.ar    1  UNL1       -0.0521
     23  C17       -3.2480   -0.4320    0.0690 C.ar    1  UNL1        0.0106
     24  C18       -1.2670    2.5610    1.0030 C.ar    1  UNL1       -0.0555
     25  C19       -0.2000    3.1460    0.4320 C.ar    1  UNL1       -0.0254
     26  C20        1.0330    2.5560    0.3990 C.ar    1  UNL1        0.1355
     27  F1         2.0840    3.1550   -0.1580 F       1  UNL1       -0.2047
     28 H           7.1594    0.1280   -3.4508 H       1  UNL1        0.4435
     29 H           6.9851    0.6170   -1.8265 H       1  UNL1        0.4435
     30 H           5.5089   -1.5287   -3.1554 H       1  UNL1        0.1476
     31 H           4.7285   -0.4690    2.1268 H       1  UNL1        0.0599
     32 H           4.1710   -2.0978    1.8330 H       1  UNL1        0.0599
     33 H           2.0884   -1.2175    1.7447 H       1  UNL1        0.1499
     34 H           0.2511   -0.2308    1.9848 H       1  UNL1        0.0629
     35 H          -2.7401    1.2486    2.9292 H       1  UNL1        0.0377
     36 H          -2.1446   -0.3182    2.5500 H       1  UNL1        0.0377
     37 H          -5.4995    2.4125   -0.4473 H       1  UNL1        0.1921
     38 H          -4.5847   -1.4186   -2.8085 H       1  UNL1        0.0625
     39 H          -3.0574   -3.3304   -2.4603 H       1  UNL1        0.0618
     40 H          -1.6995   -3.3003   -0.4646 H       1  UNL1        0.0618
     41 H          -1.7973   -1.5345    1.0978 H       1  UNL1        0.0624
     42 H          -2.1834    3.0355    1.0119 H       1  UNL1        0.0621
     43 H          -0.3160    4.0768    0.0017 H       1  UNL1        0.0646
@<TRIPOS>UNITY_ATOM_ATTR
1 1
charge 1
@<TRIPOS>BOND
     1     1     2    2
     2     2     3    1
     3     3     4    3
     4     4     5    1
     5     5     6    1
     6     6     7   am
     7     7     8    2
     8     7     9    1
     9     9    10   ar
    10     9    26   ar
    11    10    11   ar
    12    11    12    1
    13    11    24   ar
    14    12    13    1
    15    13    14   ar
    16    13    23   ar
    17    14    15   ar
    18    15    16   ar
    19    16    17    2
    20    16    18   ar
    21    18    19   ar
    22    18    23   ar
    23    19    20   ar
    24    20    21   ar
    25    21    22   ar
    26    22    23   ar
    27    24    25   ar
    28    25    26   ar
    29    26    27    1
    30     1    28    1
    31     1    29    1
    32     2    30    1
    33     5    31    1
    34     5    32    1
    35     6    33    1
    36    10    34    1
    37    12    35    1
    38    12    36    1
    39    15    37    1
    40    19    38    1
    41    20    39    1
    42    21    40    1
    43    22    41    1
    44    24    42    1
    45    25    43    1
@<TRIPOS>MOLECULE
../data/bude_mols_rdkit_confs_charged/molecule_79.pdb
 43 45 0 0 0
SMALL
GASTEIGER

@<TRIPOS>ATOM
      1  N1         8.7770    2.0760   -1.6210 N.2     1  UNL1       -0.2533
      2  C1         8.0670    1.1620   -1.0660 C.2     1  UNL1        0.2141
      3  C2         6.7190    0.8670   -1.4470 C.1     1  UNL1       -0.0046
      4  C3         5.5720    0.6170   -1.7750 C.1     1  UNL1       -0.0729
      5  C4         4.1890    0.3150   -2.1440 C.3     1  UNL1        0.0743
      6  N2         3.4620    0.0910   -0.8820 N.am    1  UNL1       -0.3004
      7  C5         2.0960   -0.2340   -0.9560 C.2     1  UNL1        0.2476
      8  O1         1.6150   -0.3050   -2.1470 O.2     1  UNL1       -0.2701
      9  C6         1.2230   -0.4860    0.1850 C.ar    1  UNL1        0.0721
     10  C7        -0.0240   -1.0470   -0.0870 C.ar    1  UNL1       -0.0433
     11  C8        -0.9430   -1.3600    0.9220 C.ar    1  UNL1       -0.0406
     12  C9        -2.2410   -1.9870    0.6030 C.3     1  UNL1        0.0171
     13  C10       -3.2160   -1.1400   -0.0730 C.ar    1  UNL1        0.0736
     14  N3        -3.3050   -1.1890   -1.4440 N.ar    1  UNL1       -0.1750
     15  N4        -4.1220   -0.4300   -2.1330 N.ar    1  UNL1       -0.2425
     16  C11       -4.9310    0.4480   -1.5410 C.ar    1  UNL1        0.2725
     17  O2        -5.7230    1.1840   -2.1860 O.2     1  UNL1       -0.2658
     18  C12       -4.9200    0.5750   -0.1600 C.ar    1  UNL1        0.0496
     19  C13       -5.7660    1.4730    0.4490 C.ar    1  UNL1       -0.0487
     20  C14       -5.7520    1.5720    1.8170 C.ar    1  UNL1       -0.0610
     21  C15       -4.8880    0.7650    2.5220 C.ar    1  UNL1       -0.0611
     22  C16       -4.0370   -0.1370    1.9120 C.ar    1  UNL1       -0.0521
     23  C17       -4.0390   -0.2460    0.5530 C.ar    1  UNL1        0.0106
     24  C18       -0.5830   -1.0970    2.2120 C.ar    1  UNL1       -0.0555
     25  C19        0.6470   -0.5400    2.5330 C.ar    1  UNL1       -0.0254
     26  C20        1.5260   -0.2470    1.4960 C.ar    1  UNL1        0.1355
     27  F1         2.7140    0.3030    1.8050 F       1  UNL1       -0.2047
     28 H           9.6999    2.2349   -1.3172 H       1  UNL1        0.4435
     29 H           8.3987    2.6182   -2.3505 H       1  UNL1        0.4435
     30 H           8.4908    0.6100   -0.3040 H       1  UNL1        0.1476
     31 H           4.1519   -0.5636   -2.7536 H       1  UNL1        0.0599
     32 H           3.7537    1.1146   -2.7061 H       1  UNL1        0.0599
     33 H           3.9189    0.1666   -0.0132 H       1  UNL1        0.1499
     34 H          -0.2792   -1.2387   -1.0684 H       1  UNL1        0.0629
     35 H          -2.6779   -2.3186    1.5217 H       1  UNL1        0.0377
     36 H          -2.0172   -2.7733   -0.0874 H       1  UNL1        0.0377
     37 H          -4.1384   -0.5108   -3.1140 H       1  UNL1        0.1921
     38 H          -6.4000    2.0617   -0.1136 H       1  UNL1        0.0625
     39 H          -6.3738    2.2351    2.3056 H       1  UNL1        0.0618
     40 H          -4.8752    0.8367    3.5514 H       1  UNL1        0.0618
     41 H          -3.4055   -0.7230    2.4802 H       1  UNL1        0.0624
     42 H          -1.2454   -1.3190    2.9716 H       1  UNL1        0.0621
     43 H           0.9023   -0.3485    3.5144 H       1  UNL1        0.0646
@<TRIPOS>UNITY_ATOM_ATTR
1 1
charge 1
@<TRIPOS>BOND
     1     1     2    2
     2     2     3    1
     3     3     4    3
     4     4     5    1
     5     5     6    1
     6     6     7   am
     7     7     8    2
     8     7     9    1
     9     9    10   ar
    10     9    26   ar
    11    10    11   ar
    12    11    12    1
    13    11    24   ar
    14    12    13    1
    15    13    14   ar
    16    13    23   ar
    17    14    15   ar
    18    15    16   ar
    19    16    17    2
    20    16    18   ar
    21    18    19   ar
    22    18    23   ar
    23    19    20   ar
    24    20    21   ar
    25    21    22   ar
    26    22    23   ar
    27    24    25   ar
    28    25    26   ar
    29    26    27    1
    30     1    28    1
    31     1    29    1
    32     2    30    1
    33     5    31    1
    34     5    32    1
    35     6    33    1
    36    10    34    1
    37    12    35    1
    38    12    36    1
    39    15    37    1
    40    19    38    1
    41    20    39    1
    42    21    40    1
    43    22    41    1
    44    24    42    1
    45    25    43    1
@<TRIPOS>MOLECULE
../data/bude_mols_rdkit_confs_charged/molecule_79.pdb
 43 45 0 0 0
SMALL
GASTEIGER

@<TRIPOS>ATOM
      1  N1         6.6390   -0.4710    0.6840 N.2     1  UNL1       -0.2533
      2  C1         6.3370   -0.4170   -0.5600 C.2     1  UNL1        0.2141
      3  C2         5.5280   -1.4440   -1.0810 C.1     1  UNL1       -0.0046
      4  C3         4.6630   -2.5070   -1.6380 C.1     1  UNL1       -0.0729
      5  C4         3.8970   -3.4570   -2.1170 C.3     1  UNL1        0.0743
      6  N2         2.5840   -3.2370   -1.3530 N.am    1  UNL1       -0.3004
      7  C5         1.7270   -2.1460   -1.5270 C.2     1  UNL1        0.2476
      8  O1         2.0760   -1.2640   -2.3840 O.2     1  UNL1       -0.2701
      9  C6         0.5010   -2.0290   -0.7640 C.ar    1  UNL1        0.0721
     10  C7        -0.3040   -0.7550   -1.1480 C.ar    1  UNL1       -0.0433
     11  C8        -1.4180   -0.6910   -0.3900 C.ar    1  UNL1       -0.0406
     12  C9        -2.5640    0.2580   -1.0370 C.3     1  UNL1        0.0171
     13  C10       -3.2030    0.9820    0.0780 C.ar    1  UNL1        0.0736
     14  N3        -4.2480    0.2800    0.7440 N.ar    1  UNL1       -0.1750
     15  N4        -4.7570    0.9420    1.8360 N.ar    1  UNL1       -0.2425
     16  C11       -4.3590    2.0990    2.2430 C.ar    1  UNL1        0.2725
     17  O2        -4.9280    2.6160    3.2610 O.2     1  UNL1       -0.2658
     18  C12       -3.3690    2.8310    1.6550 C.ar    1  UNL1        0.0496
     19  C13       -2.9120    3.9930    1.9900 C.ar    1  UNL1       -0.0487
     20  C14       -1.8930    4.7620    1.4140 C.ar    1  UNL1       -0.0610
     21  C15       -1.3040    4.1870    0.3260 C.ar    1  UNL1       -0.0611
     22  C16       -1.7420    2.9340   -0.1230 C.ar    1  UNL1       -0.0521
     23  C17       -2.7620    2.1770    0.4690 C.ar    1  UNL1        0.0106
     24  C18       -1.9520   -1.3960    0.5460 C.ar    1  UNL1       -0.0555
     25  C19       -1.1770   -2.6440    0.9210 C.ar    1  UNL1       -0.0254
     26  C20       -0.0450   -2.7210    0.1540 C.ar    1  UNL1        0.1355
     27  F1         0.5850   -4.0170    0.4080 F       1  UNL1       -0.2047
     28 H           7.2030    0.2295    1.0845 H       1  UNL1        0.4435
     29 H           6.3070   -1.2130    1.2394 H       1  UNL1        0.4435
     30 H           6.6751    0.3525   -1.1588 H       1  UNL1        0.1476
     31 H           4.3063   -4.4243   -1.9130 H       1  UNL1        0.0599
     32 H           3.7845   -3.4206   -3.1804 H       1  UNL1        0.0599
     33 H           2.3253   -3.9165   -0.6892 H       1  UNL1        0.1499
     34 H          -0.0297   -0.0682   -1.8678 H       1  UNL1        0.0629
     35 H          -3.2883   -0.3386   -1.5511 H       1  UNL1        0.0377
     36 H          -2.1407    0.9410   -1.7436 H       1  UNL1        0.0377
     37 H          -5.4765    0.5014    2.3434 H       1  UNL1        0.1921
     38 H          -3.3696    4.4209    2.8101 H       1  UNL1        0.0625
     39 H          -1.6118    5.6846    1.7811 H       1  UNL1        0.0618
     40 H          -0.5378    4.6736   -0.1651 H       1  UNL1        0.0618
     41 H          -1.2771    2.5376   -0.9547 H       1  UNL1        0.0624
     42 H          -2.8379   -1.1322    1.0049 H       1  UNL1        0.0621
     43 H          -1.4582   -3.3278    1.6409 H       1  UNL1        0.0646
@<TRIPOS>UNITY_ATOM_ATTR
1 1
charge 1
@<TRIPOS>BOND
     1     1     2    2
     2     2     3    1
     3     3     4    3
     4     4     5    1
     5     5     6    1
     6     6     7   am
     7     7     8    2
     8     7     9    1
     9     9    10   ar
    10     9    26   ar
    11    10    11   ar
    12    11    12    1
    13    11    24   ar
    14    12    13    1
    15    13    14   ar
    16    13    23   ar
    17    14    15   ar
    18    15    16   ar
    19    16    17    2
    20    16    18   ar
    21    18    19   ar
    22    18    23   ar
    23    19    20   ar
    24    20    21   ar
    25    21    22   ar
    26    22    23   ar
    27    24    25   ar
    28    25    26   ar
    29    26    27    1
    30     1    28    1
    31     1    29    1
    32     2    30    1
    33     5    31    1
    34     5    32    1
    35     6    33    1
    36    10    34    1
    37    12    35    1
    38    12    36    1
    39    15    37    1
    40    19    38    1
    41    20    39    1
    42    21    40    1
    43    22    41    1
    44    24    42    1
    45    25    43    1
@<TRIPOS>MOLECULE
../data/bude_mols_rdkit_confs_charged/molecule_79.pdb
 43 45 0 0 0
SMALL
GASTEIGER

@<TRIPOS>ATOM
      1  N1         6.2090   -2.4970   -1.1660 N.2     1  UNL1       -0.2533
      2  C1         6.9710   -1.6030   -1.6810 C.2     1  UNL1        0.2141
      3  C2         6.3050   -0.2300   -1.5040 C.1     1  UNL1       -0.0046
      4  C3         5.7780    0.8470   -1.3440 C.1     1  UNL1       -0.0729
      5  C4         5.1020    2.2450   -1.1130 C.3     1  UNL1        0.0743
      6  N2         3.8670    2.0520   -0.4080 N.am    1  UNL1       -0.3004
      7  C5         2.8280    1.2230   -0.8990 C.2     1  UNL1        0.2476
      8  O1         3.0370    0.6330   -1.9950 O.2     1  UNL1       -0.2701
      9  C6         1.5790    1.0630   -0.2170 C.ar    1  UNL1        0.0721
     10  C7         0.5110    0.5060   -0.9080 C.ar    1  UNL1       -0.0433
     11  C8        -0.7670    0.3630   -0.4210 C.ar    1  UNL1       -0.0406
     12  C9        -1.9050   -0.2080   -1.1670 C.3     1  UNL1        0.0171
     13  C10       -3.2280    0.0660   -0.5970 C.ar    1  UNL1        0.0736
     14  N3        -4.1010    0.9330   -0.9090 N.ar    1  UNL1       -0.1750
     15  N4        -5.2370    1.3600   -0.5620 N.ar    1  UNL1       -0.2425
     16  C11       -5.6750    0.5690    0.6230 C.ar    1  UNL1        0.2725
     17  O2        -6.7910    0.9790    0.9930 O.2     1  UNL1       -0.2658
     18  C12       -4.8770   -0.3400    1.0290 C.ar    1  UNL1        0.0496
     19  C13       -5.4220   -1.1930    2.1290 C.ar    1  UNL1       -0.0487
     20  C14       -4.6130   -2.2270    2.4890 C.ar    1  UNL1       -0.0610
     21  C15       -3.4320   -2.5540    1.9910 C.ar    1  UNL1       -0.0611
     22  C16       -2.8670   -1.7590    0.9440 C.ar    1  UNL1       -0.0521
     23  C17       -3.6630   -0.7260    0.5770 C.ar    1  UNL1        0.0106
     24  C18       -0.9680    0.8370    0.9010 C.ar    1  UNL1       -0.0555
     25  C19        0.0280    1.3880    1.6300 C.ar    1  UNL1       -0.0254
     26  C20        1.3370    1.5180    1.0970 C.ar    1  UNL1        0.1355
     27  F1         2.3110    2.0280    1.8090 F       1  UNL1       -0.2047
     28 H           6.4771   -3.4440   -1.1873 H       1  UNL1        0.4435
     29 H           5.3560   -2.2362   -0.7494 H       1  UNL1        0.4435
     30 H           7.8798   -1.7770   -2.1380 H       1  UNL1        0.1476
     31 H           4.9082    2.7108   -2.0566 H       1  UNL1        0.0599
     32 H           5.7526    2.8727   -0.5406 H       1  UNL1        0.0599
     33 H           3.7364    2.5142    0.4514 H       1  UNL1        0.1499
     34 H           0.6916    0.1713   -1.8674 H       1  UNL1        0.0629
     35 H          -1.7753   -1.2694   -1.2065 H       1  UNL1        0.0377
     36 H          -1.8939    0.2610   -2.1287 H       1  UNL1        0.0377
     37 H          -5.7426    2.0848   -0.9958 H       1  UNL1        0.1921
     38 H          -6.3340   -1.0133    2.5774 H       1  UNL1        0.0625
     39 H          -4.9659   -2.8325    3.2465 H       1  UNL1        0.0618
     40 H          -2.9228   -3.3749    2.3542 H       1  UNL1        0.0618
     41 H          -1.9492   -1.9523    0.5135 H       1  UNL1        0.0624
     42 H          -1.9075    0.7584    1.3207 H       1  UNL1        0.0621
     43 H          -0.1662    1.7190    2.5880 H       1  UNL1        0.0646
@<TRIPOS>UNITY_ATOM_ATTR
1 1
charge 1
@<TRIPOS>BOND
     1     1     2    2
     2     2     3    1
     3     3     4    3
     4     4     5    1
     5     5     6    1
     6     6     7   am
     7     7     8    2
     8     7     9    1
     9     9    10   ar
    10     9    26   ar
    11    10    11   ar
    12    11    12    1
    13    11    24   ar
    14    12    13    1
    15    13    14   ar
    16    13    23   ar
    17    14    15   ar
    18    15    16   ar
    19    16    17    2
    20    16    18   ar
    21    18    19   ar
    22    18    23   ar
    23    19    20   ar
    24    20    21   ar
    25    21    22   ar
    26    22    23   ar
    27    24    25   ar
    28    25    26   ar
    29    26    27    1
    30     1    28    1
    31     1    29    1
    32     2    30    1
    33     5    31    1
    34     5    32    1
    35     6    33    1
    36    10    34    1
    37    12    35    1
    38    12    36    1
    39    15    37    1
    40    19    38    1
    41    20    39    1
    42    21    40    1
    43    22    41    1
    44    24    42    1
    45    25    43    1
@<TRIPOS>MOLECULE
../data/bude_mols_rdkit_confs_charged/molecule_79.pdb
 43 45 0 0 0
SMALL
GASTEIGER

@<TRIPOS>ATOM
      1  N1         9.2460    0.3440    0.6480 N.2     1  UNL1       -0.2533
      2  C1         8.2850    0.8540   -0.1160 C.2     1  UNL1        0.2141
      3  C2         7.1560    0.7410    0.1810 C.1     1  UNL1       -0.0046
      4  C3         5.8580    0.5900    0.5320 C.1     1  UNL1       -0.0729
      5  C4         4.3930    0.4130    0.9360 C.3     1  UNL1        0.0743
      6  N2         3.5580   -0.0950   -0.0870 N.am    1  UNL1       -0.3004
      7  C5         2.2090   -0.4420    0.4030 C.2     1  UNL1        0.2476
      8  O1         1.8970   -0.2640    1.5470 O.2     1  UNL1       -0.2701
      9  C6         1.1930   -1.0330   -0.5470 C.ar    1  UNL1        0.0721
     10  C7        -0.1250   -0.6180   -0.1700 C.ar    1  UNL1       -0.0433
     11  C8        -1.1090   -1.1200   -1.0950 C.ar    1  UNL1       -0.0406
     12  C9        -2.4710   -0.9850   -0.5300 C.3     1  UNL1        0.0171
     13  C10       -3.1040    0.4290   -0.6730 C.ar    1  UNL1        0.0736
     14  N3        -2.7360    1.5160   -0.8370 N.ar    1  UNL1       -0.1750
     15  N4        -3.2650    2.7190   -0.4160 N.ar    1  UNL1       -0.2425
     16  C11       -4.3470    2.5940    0.2800 C.ar    1  UNL1        0.2725
     17  O2        -4.9080    3.7640    0.7270 O.2     1  UNL1       -0.2658
     18  C12       -4.9600    1.5050    0.5960 C.ar    1  UNL1        0.0496
     19  C13       -6.0170    1.4230    1.3950 C.ar    1  UNL1       -0.0487
     20  C14       -6.5540    0.2700    1.8090 C.ar    1  UNL1       -0.0610
     21  C15       -6.0120   -1.0290    1.4210 C.ar    1  UNL1       -0.0611
     22  C16       -4.9170   -0.8960    0.5610 C.ar    1  UNL1       -0.0521
     23  C17       -4.3950    0.2740    0.1470 C.ar    1  UNL1        0.0106
     24  C18       -0.7150   -1.8380   -2.1090 C.ar    1  UNL1       -0.0555
     25  C19        0.6100   -2.2670   -2.4880 C.ar    1  UNL1       -0.0254
     26  C20        1.6150   -1.7340   -1.4850 C.ar    1  UNL1        0.1355
     27  F1         2.8710   -2.2160   -1.5840 F       1  UNL1       -0.2047
     28 H          10.1895    0.4465    0.3862 H       1  UNL1        0.4435
     29 H           9.0142   -0.1362    1.4756 H       1  UNL1        0.4435
     30 H           8.5358    1.3561   -0.9821 H       1  UNL1        0.1476
     31 H           4.0116    1.3668    1.2354 H       1  UNL1        0.0599
     32 H           4.3808   -0.3098    1.7248 H       1  UNL1        0.0599
     33 H           3.8448   -0.2050   -1.0224 H       1  UNL1        0.1499
     34 H          -0.3412   -0.0366    0.6548 H       1  UNL1        0.0629
     35 H          -2.4235   -1.2237    0.5119 H       1  UNL1        0.0377
     36 H          -3.0947   -1.6503   -1.0898 H       1  UNL1        0.0377
     37 H          -2.8569    3.5900   -0.6259 H       1  UNL1        0.1921
     38 H          -6.4509    2.3025    1.7163 H       1  UNL1        0.0625
     39 H          -7.3814    0.2997    2.4250 H       1  UNL1        0.0618
     40 H          -6.3903   -1.9340    1.7418 H       1  UNL1        0.0618
     41 H          -4.4745   -1.7625    0.2168 H       1  UNL1        0.0624
     42 H          -1.4696   -2.1488   -2.7406 H       1  UNL1        0.0621
     43 H           0.8377   -2.8454   -3.3118 H       1  UNL1        0.0646
@<TRIPOS>UNITY_ATOM_ATTR
1 1
charge 1
@<TRIPOS>BOND
     1     1     2    2
     2     2     3    1
     3     3     4    3
     4     4     5    1
     5     5     6    1
     6     6     7   am
     7     7     8    2
     8     7     9    1
     9     9    10   ar
    10     9    26   ar
    11    10    11   ar
    12    11    12    1
    13    11    24   ar
    14    12    13    1
    15    13    14   ar
    16    13    23   ar
    17    14    15   ar
    18    15    16   ar
    19    16    17    2
    20    16    18   ar
    21    18    19   ar
    22    18    23   ar
    23    19    20   ar
    24    20    21   ar
    25    21    22   ar
    26    22    23   ar
    27    24    25   ar
    28    25    26   ar
    29    26    27    1
    30     1    28    1
    31     1    29    1
    32     2    30    1
    33     5    31    1
    34     5    32    1
    35     6    33    1
    36    10    34    1
    37    12    35    1
    38    12    36    1
    39    15    37    1
    40    19    38    1
    41    20    39    1
    42    21    40    1
    43    22    41    1
    44    24    42    1
    45    25    43    1
@<TRIPOS>MOLECULE
../data/bude_mols_rdkit_confs_charged/molecule_79.pdb
 43 45 0 0 0
SMALL
GASTEIGER

@<TRIPOS>ATOM
      1  N1         7.7000    0.9620    2.7980 N.2     1  UNL1       -0.2533
      2  C1         6.5810    1.5060    2.7000 C.2     1  UNL1        0.2141
      3  C2         5.8500    0.0630    1.9360 C.1     1  UNL1       -0.0046
      4  C3         5.3550   -0.9470    1.4090 C.1     1  UNL1       -0.0729
      5  C4         4.8170   -2.0290    0.8650 C.3     1  UNL1        0.0743
      6  N2         3.6220   -1.8370    0.1090 N.am    1  UNL1       -0.3004
      7  C5         2.3550   -1.3320    0.5720 C.2     1  UNL1        0.2476
      8  O1         2.2850   -1.0210    1.7640 O.2     1  UNL1       -0.2701
      9  C6         1.2860   -1.2350   -0.3920 C.ar    1  UNL1        0.0721
     10  C7         0.4160   -0.2160   -0.6030 C.ar    1  UNL1       -0.0433
     11  C8        -0.5190   -0.1550   -1.5670 C.ar    1  UNL1       -0.0406
     12  C9        -1.5300    0.9360   -1.7350 C.3     1  UNL1        0.0171
     13  C10       -2.6430    0.5510   -0.7720 C.ar    1  UNL1        0.0736
     14  N3        -2.5190   -0.6110   -0.2060 N.ar    1  UNL1       -0.1750
     15  N4        -3.4650   -1.1250    0.6620 N.ar    1  UNL1       -0.2425
     16  C11       -4.5470   -0.4300    0.9290 C.ar    1  UNL1        0.2725
     17  O2        -5.5230   -0.7360    1.6710 O.2     1  UNL1       -0.2658
     18  C12       -4.7330    0.8810    0.3220 C.ar    1  UNL1        0.0496
     19  C13       -5.8940    1.5520    0.6170 C.ar    1  UNL1       -0.0487
     20  C14       -6.0220    2.8410   -0.0510 C.ar    1  UNL1       -0.0610
     21  C15       -5.0100    3.2260   -0.8800 C.ar    1  UNL1       -0.0611
     22  C16       -3.8910    2.5660   -1.1620 C.ar    1  UNL1       -0.0521
     23  C17       -3.7530    1.3090   -0.5120 C.ar    1  UNL1        0.0106
     24  C18       -0.6450   -1.1960   -2.4810 C.ar    1  UNL1       -0.0555
     25  C19        0.2070   -2.3150   -2.3800 C.ar    1  UNL1       -0.0254
     26  C20        1.1350   -2.2820   -1.3190 C.ar    1  UNL1        0.1355
     27  F1         1.9610   -3.3910   -1.1170 F       1  UNL1       -0.2047
     28 H           8.4532    1.4540    3.1980 H       1  UNL1        0.4435
     29 H           7.8295    0.0409    2.4753 H       1  UNL1        0.4435
     30 H           6.2160    2.4354    2.9607 H       1  UNL1        0.1476
     31 H           4.5940   -2.7137    1.6564 H       1  UNL1        0.0599
     32 H           5.5422   -2.3817    0.1618 H       1  UNL1        0.0599
     33 H           3.6693   -2.0789   -0.8441 H       1  UNL1        0.1499
     34 H           0.4778    0.5902    0.0383 H       1  UNL1        0.0629
     35 H          -1.8914    0.9691   -2.7416 H       1  UNL1        0.0377
     36 H          -1.1277    1.9072   -1.5354 H       1  UNL1        0.0377
     37 H          -3.3282   -2.0070    1.0775 H       1  UNL1        0.1921
     38 H          -6.6127    1.1767    1.2555 H       1  UNL1        0.0625
     39 H          -6.8486    3.4407    0.0980 H       1  UNL1        0.0618
     40 H          -5.1269    4.1401   -1.3445 H       1  UNL1        0.0618
     41 H          -3.1752    2.9386   -1.8053 H       1  UNL1        0.0624
     42 H          -1.3564   -1.1497   -3.2271 H       1  UNL1        0.0621
     43 H           0.1547   -3.1068   -3.0399 H       1  UNL1        0.0646
@<TRIPOS>UNITY_ATOM_ATTR
1 1
charge 1
@<TRIPOS>BOND
     1     1     2    2
     2     2     3    1
     3     3     4    3
     4     4     5    1
     5     5     6    1
     6     6     7   am
     7     7     8    2
     8     7     9    1
     9     9    10   ar
    10     9    26   ar
    11    10    11   ar
    12    11    12    1
    13    11    24   ar
    14    12    13    1
    15    13    14   ar
    16    13    23   ar
    17    14    15   ar
    18    15    16   ar
    19    16    17    2
    20    16    18   ar
    21    18    19   ar
    22    18    23   ar
    23    19    20   ar
    24    20    21   ar
    25    21    22   ar
    26    22    23   ar
    27    24    25   ar
    28    25    26   ar
    29    26    27    1
    30     1    28    1
    31     1    29    1
    32     2    30    1
    33     5    31    1
    34     5    32    1
    35     6    33    1
    36    10    34    1
    37    12    35    1
    38    12    36    1
    39    15    37    1
    40    19    38    1
    41    20    39    1
    42    21    40    1
    43    22    41    1
    44    24    42    1
    45    25    43    1
@<TRIPOS>MOLECULE
../data/bude_mols_rdkit_confs_charged/molecule_79.pdb
 43 45 0 0 0
SMALL
GASTEIGER

@<TRIPOS>ATOM
      1  N1         8.1280    0.6840    0.5700 N.2     1  UNL1       -0.2533
      2  C1         6.8500    0.7780    0.4430 C.2     1  UNL1        0.2141
      3  C2         6.1430   -0.2900   -0.2280 C.1     1  UNL1       -0.0046
      4  C3         5.5680   -1.1880   -0.7920 C.1     1  UNL1       -0.0729
      5  C4         4.8760   -2.2880   -1.5060 C.3     1  UNL1        0.0743
      6  N2         3.5220   -1.7430   -1.7690 N.am    1  UNL1       -0.3004
      7  C5         2.7230   -1.3570   -0.6810 C.2     1  UNL1        0.2476
      8  O1         3.2230   -1.5110    0.4890 O.2     1  UNL1       -0.2701
      9  C6         1.3880   -0.8070   -0.8120 C.ar    1  UNL1        0.0721
     10  C7         0.6010   -0.6370    0.3380 C.ar    1  UNL1       -0.0433
     11  C8        -0.6770   -0.1340    0.3200 C.ar    1  UNL1       -0.0406
     12  C9        -1.3550   -0.0580    1.6420 C.3     1  UNL1        0.0171
     13  C10       -2.7950   -0.2490    1.6390 C.ar    1  UNL1        0.0736
     14  N3        -3.2820   -1.4930    1.8560 N.ar    1  UNL1       -0.1750
     15  N4        -4.5720   -1.7680    1.8370 N.ar    1  UNL1       -0.2425
     16  C11       -5.4880   -0.8150    1.5990 C.ar    1  UNL1        0.2725
     17  O2        -6.7350   -1.0920    1.5820 O.2     1  UNL1       -0.2658
     18  C12       -5.0290    0.4620    1.3750 C.ar    1  UNL1        0.0496
     19  C13       -5.9330    1.4660    1.1480 C.ar    1  UNL1       -0.0487
     20  C14       -5.5290    2.7690    0.9370 C.ar    1  UNL1       -0.0610
     21  C15       -4.1740    3.0530    0.9580 C.ar    1  UNL1       -0.0611
     22  C16       -3.2490    2.0860    1.1790 C.ar    1  UNL1       -0.0521
     23  C17       -3.6790    0.7690    1.3900 C.ar    1  UNL1        0.0106
     24  C18       -1.2200    0.2230   -0.8780 C.ar    1  UNL1       -0.0555
     25  C19       -0.5000    0.0820   -2.0360 C.ar    1  UNL1       -0.0254
     26  C20        0.7880   -0.4290   -1.9850 C.ar    1  UNL1        0.1355
     27  F1         1.4830   -0.5460   -3.1610 F       1  UNL1       -0.2047
     28 H           8.6315    1.3984    1.0231 H       1  UNL1        0.4435
     29 H           8.6015   -0.1023    0.2140 H       1  UNL1        0.4435
     30 H           6.3419    1.5971    0.8118 H       1  UNL1        0.1476
     31 H           4.8219   -3.1645   -0.8947 H       1  UNL1        0.0599
     32 H           5.3834   -2.5844   -2.4002 H       1  UNL1        0.0599
     33 H           3.1890   -1.6534   -2.6911 H       1  UNL1        0.1499
     34 H           1.0057   -0.9052    1.2487 H       1  UNL1        0.0629
     35 H          -1.1552    0.9084    2.0557 H       1  UNL1        0.0377
     36 H          -0.9604   -0.8730    2.2121 H       1  UNL1        0.0377
     37 H          -4.8698   -2.6920    2.0009 H       1  UNL1        0.1921
     38 H          -6.9405    1.2428    1.1344 H       1  UNL1        0.0625
     39 H          -6.2216    3.5150    0.7673 H       1  UNL1        0.0618
     40 H          -3.8604    4.0237    0.8018 H       1  UNL1        0.0618
     41 H          -2.2432    2.3167    1.1916 H       1  UNL1        0.0624
     42 H          -2.1793    0.6019   -0.9136 H       1  UNL1        0.0621
     43 H          -0.9144    0.3547   -2.9409 H       1  UNL1        0.0646
@<TRIPOS>UNITY_ATOM_ATTR
1 1
charge 1
@<TRIPOS>BOND
     1     1     2    2
     2     2     3    1
     3     3     4    3
     4     4     5    1
     5     5     6    1
     6     6     7   am
     7     7     8    2
     8     7     9    1
     9     9    10   ar
    10     9    26   ar
    11    10    11   ar
    12    11    12    1
    13    11    24   ar
    14    12    13    1
    15    13    14   ar
    16    13    23   ar
    17    14    15   ar
    18    15    16   ar
    19    16    17    2
    20    16    18   ar
    21    18    19   ar
    22    18    23   ar
    23    19    20   ar
    24    20    21   ar
    25    21    22   ar
    26    22    23   ar
    27    24    25   ar
    28    25    26   ar
    29    26    27    1
    30     1    28    1
    31     1    29    1
    32     2    30    1
    33     5    31    1
    34     5    32    1
    35     6    33    1
    36    10    34    1
    37    12    35    1
    38    12    36    1
    39    15    37    1
    40    19    38    1
    41    20    39    1
    42    21    40    1
    43    22    41    1
    44    24    42    1
    45    25    43    1
@<TRIPOS>MOLECULE
../data/bude_mols_rdkit_confs_charged/molecule_79.pdb
 43 45 0 0 0
SMALL
GASTEIGER

@<TRIPOS>ATOM
      1  N1         5.9440    2.8200   -1.4220 N.2     1  UNL1       -0.2533
      2  C1         5.6940    1.7360   -0.7630 C.2     1  UNL1        0.2141
      3  C2         5.2290    0.5650   -1.4530 C.1     1  UNL1       -0.0046
      4  C3         4.8380   -0.4500   -2.0280 C.1     1  UNL1       -0.0729
      5  C4         4.3530   -1.6550   -2.7040 C.3     1  UNL1        0.0743
      6  N2         2.8830   -1.7670   -2.6130 N.am    1  UNL1       -0.3004
      7  C5         2.3210   -1.8130   -1.3280 C.2     1  UNL1        0.2476
      8  O1         3.1270   -1.7400   -0.3250 O.2     1  UNL1       -0.2701
      9  C6         0.8990   -1.9350   -1.0640 C.ar    1  UNL1        0.0721
     10  C7         0.4060   -1.5960    0.1800 C.ar    1  UNL1       -0.0433
     11  C8        -0.9620   -1.6720    0.5030 C.ar    1  UNL1       -0.0406
     12  C9        -1.4100   -1.2710    1.8610 C.3     1  UNL1        0.0171
     13  C10       -1.7380    0.1530    1.9560 C.ar    1  UNL1        0.0736
     14  N3        -0.7100    1.0060    2.2220 N.ar    1  UNL1       -0.1750
     15  N4        -0.8340    2.3140    2.2380 N.ar    1  UNL1       -0.2425
     16  C11       -2.0030    2.9060    1.9900 C.ar    1  UNL1        0.2725
     17  O2        -2.1430    4.1470    1.9990 O.2     1  UNL1       -0.2658
     18  C12       -3.1030    2.1030    1.7120 C.ar    1  UNL1        0.0496
     19  C13       -4.3310    2.6630    1.4720 C.ar    1  UNL1       -0.0487
     20  C14       -5.4270    1.8270    1.2190 C.ar    1  UNL1       -0.0610
     21  C15       -5.2640    0.4640    1.2130 C.ar    1  UNL1       -0.0611
     22  C16       -4.0430   -0.1200    1.4490 C.ar    1  UNL1       -0.0521
     23  C17       -2.9570    0.7100    1.6980 C.ar    1  UNL1        0.0106
     24  C18       -1.8380   -2.0940   -0.4400 C.ar    1  UNL1       -0.0555
     25  C19       -1.3780   -2.4440   -1.7060 C.ar    1  UNL1       -0.0254
     26  C20       -0.0360   -2.3520   -1.9720 C.ar    1  UNL1        0.1355
     27  F1         0.3470   -2.7240   -3.2320 F       1  UNL1       -0.2047
     28 H           6.2626    3.6219   -0.9479 H       1  UNL1        0.4435
     29 H           5.8157    2.8435   -2.3978 H       1  UNL1        0.4435
     30 H           5.8287    1.7120    0.2599 H       1  UNL1        0.1476
     31 H           4.7970   -2.5141   -2.2460 H       1  UNL1        0.0599
     32 H           4.6236   -1.5944   -3.7374 H       1  UNL1        0.0599
     33 H           2.3209   -1.8077   -3.4202 H       1  UNL1        0.1499
     34 H           1.0678   -1.2735    0.9032 H       1  UNL1        0.0629
     35 H          -0.6266   -1.4880    2.5568 H       1  UNL1        0.0377
     36 H          -2.3013   -1.8209    2.0803 H       1  UNL1        0.0377
     37 H          -0.0461    2.8696    2.4376 H       1  UNL1        0.1921
     38 H          -4.4471    3.6884    1.4776 H       1  UNL1        0.0625
     39 H          -6.3568    2.2362    1.0372 H       1  UNL1        0.0618
     40 H          -6.0808   -0.1384    1.0261 H       1  UNL1        0.0618
     41 H          -3.9355   -1.1464    1.4415 H       1  UNL1        0.0624
     42 H          -2.8444   -2.1559   -0.2201 H       1  UNL1        0.0621
     43 H          -2.0359   -2.7674   -2.4324 H       1  UNL1        0.0646
@<TRIPOS>UNITY_ATOM_ATTR
1 1
charge 1
@<TRIPOS>BOND
     1     1     2    2
     2     2     3    1
     3     3     4    3
     4     4     5    1
     5     5     6    1
     6     6     7   am
     7     7     8    2
     8     7     9    1
     9     9    10   ar
    10     9    26   ar
    11    10    11   ar
    12    11    12    1
    13    11    24   ar
    14    12    13    1
    15    13    14   ar
    16    13    23   ar
    17    14    15   ar
    18    15    16   ar
    19    16    17    2
    20    16    18   ar
    21    18    19   ar
    22    18    23   ar
    23    19    20   ar
    24    20    21   ar
    25    21    22   ar
    26    22    23   ar
    27    24    25   ar
    28    25    26   ar
    29    26    27    1
    30     1    28    1
    31     1    29    1
    32     2    30    1
    33     5    31    1
    34     5    32    1
    35     6    33    1
    36    10    34    1
    37    12    35    1
    38    12    36    1
    39    15    37    1
    40    19    38    1
    41    20    39    1
    42    21    40    1
    43    22    41    1
    44    24    42    1
    45    25    43    1
@<TRIPOS>MOLECULE
../data/bude_mols_rdkit_confs_charged/molecule_79.pdb
 43 45 0 0 0
SMALL
GASTEIGER

@<TRIPOS>ATOM
      1  N1         9.2570    0.1270    0.0520 N.2     1  UNL1       -0.2533
      2  C1         8.4670   -0.6320   -0.7350 C.2     1  UNL1        0.2141
      3  C2         7.1610   -0.8530   -0.1980 C.1     1  UNL1       -0.0046
      4  C3         6.0910   -1.0540    0.2440 C.1     1  UNL1       -0.0729
      5  C4         4.7900   -1.3220    0.7770 C.3     1  UNL1        0.0743
      6  N2         3.7350   -0.6240    0.0230 N.am    1  UNL1       -0.3004
      7  C5         2.4020   -0.8380    0.4340 C.2     1  UNL1        0.2476
      8  O1         2.2440   -1.6280    1.4390 O.2     1  UNL1       -0.2701
      9  C6         1.2050   -0.2680   -0.1610 C.ar    1  UNL1        0.0721
     10  C7        -0.0090   -0.9380   -0.0170 C.ar    1  UNL1       -0.0433
     11  C8        -1.1930   -0.4800   -0.6190 C.ar    1  UNL1       -0.0406
     12  C9        -2.4450   -1.2930   -0.3710 C.3     1  UNL1        0.0171
     13  C10       -3.2410   -0.7340    0.7100 C.ar    1  UNL1        0.0736
     14  N3        -2.9100   -1.0690    1.9990 N.ar    1  UNL1       -0.1750
     15  N4        -3.5340   -0.5330    3.0240 N.ar    1  UNL1       -0.2425
     16  C11       -4.5140    0.3550    2.8960 C.ar    1  UNL1        0.2725
     17  O2        -5.1360    0.8970    3.8750 O.2     1  UNL1       -0.2658
     18  C12       -4.9360    0.7690    1.6230 C.ar    1  UNL1        0.0496
     19  C13       -5.9660    1.6510    1.4530 C.ar    1  UNL1       -0.0487
     20  C14       -6.3550    1.9790    0.1710 C.ar    1  UNL1       -0.0610
     21  C15       -5.7070    1.4220   -0.9070 C.ar    1  UNL1       -0.0611
     22  C16       -4.6680    0.5350   -0.7350 C.ar    1  UNL1       -0.0521
     23  C17       -4.2460    0.1750    0.5500 C.ar    1  UNL1        0.0106
     24  C18       -1.1110    0.6420   -1.3490 C.ar    1  UNL1       -0.0555
     25  C19        0.0840    1.3580   -1.5300 C.ar    1  UNL1       -0.0254
     26  C20        1.2440    0.8660   -0.9090 C.ar    1  UNL1        0.1355
     27  F1         2.4180    1.5610   -1.0480 F       1  UNL1       -0.2047
     28 H          10.1767    0.3368   -0.2298 H       1  UNL1        0.4435
     29 H           8.9139    0.4711    0.9082 H       1  UNL1        0.4435
     30 H           8.7768   -1.0174   -1.6408 H       1  UNL1        0.1476
     31 H           4.7597   -0.9974    1.7961 H       1  UNL1        0.0599
     32 H           4.6108   -2.3743    0.7028 H       1  UNL1        0.0599
     33 H           3.9503   -0.0337   -0.7349 H       1  UNL1        0.1499
     34 H          -0.0390   -1.7992    0.5508 H       1  UNL1        0.0629
     35 H          -2.1644   -2.2931   -0.1143 H       1  UNL1        0.0377
     36 H          -3.0354   -1.2788   -1.2632 H       1  UNL1        0.0377
     37 H          -3.2620   -0.8026    3.9309 H       1  UNL1        0.1921
     38 H          -6.4440    2.0641    2.2690 H       1  UNL1        0.0625
     39 H          -7.1316    2.6418    0.0206 H       1  UNL1        0.0618
     40 H          -6.0051    1.6736   -1.8624 H       1  UNL1        0.0618
     41 H          -4.1967    0.1324   -1.5601 H       1  UNL1        0.0624
     42 H          -1.9685    0.9971   -1.8003 H       1  UNL1        0.0621
     43 H           0.1089    2.2175   -2.1006 H       1  UNL1        0.0646
@<TRIPOS>UNITY_ATOM_ATTR
1 1
charge 1
@<TRIPOS>BOND
     1     1     2    2
     2     2     3    1
     3     3     4    3
     4     4     5    1
     5     5     6    1
     6     6     7   am
     7     7     8    2
     8     7     9    1
     9     9    10   ar
    10     9    26   ar
    11    10    11   ar
    12    11    12    1
    13    11    24   ar
    14    12    13    1
    15    13    14   ar
    16    13    23   ar
    17    14    15   ar
    18    15    16   ar
    19    16    17    2
    20    16    18   ar
    21    18    19   ar
    22    18    23   ar
    23    19    20   ar
    24    20    21   ar
    25    21    22   ar
    26    22    23   ar
    27    24    25   ar
    28    25    26   ar
    29    26    27    1
    30     1    28    1
    31     1    29    1
    32     2    30    1
    33     5    31    1
    34     5    32    1
    35     6    33    1
    36    10    34    1
    37    12    35    1
    38    12    36    1
    39    15    37    1
    40    19    38    1
    41    20    39    1
    42    21    40    1
    43    22    41    1
    44    24    42    1
    45    25    43    1
@<TRIPOS>MOLECULE
../data/bude_mols_rdkit_confs_charged/molecule_79.pdb
 43 45 0 0 0
SMALL
GASTEIGER

@<TRIPOS>ATOM
      1  N1         8.6620    1.4700   -0.1310 N.2     1  UNL1       -0.2533
      2  C1         7.6950    1.4440   -0.9920 C.2     1  UNL1        0.2141
      3  C2         6.5790    0.4710   -0.7410 C.1     1  UNL1       -0.0046
      4  C3         5.6530   -0.3650   -0.5290 C.1     1  UNL1       -0.0729
      5  C4         4.6150   -1.3000   -0.2770 C.3     1  UNL1        0.0743
      6  N2         3.3870   -0.5070   -0.3660 N.am    1  UNL1       -0.3004
      7  C5         2.0820   -0.8230   -0.0030 C.2     1  UNL1        0.2476
      8  O1         1.8120   -1.9430    0.4410 O.2     1  UNL1       -0.2701
      9  C6         1.0330    0.2420   -0.1660 C.ar    1  UNL1        0.0721
     10  C7        -0.2790   -0.0280   -0.4180 C.ar    1  UNL1       -0.0433
     11  C8        -1.2030    0.9930   -0.6520 C.ar    1  UNL1       -0.0406
     12  C9        -2.5780    0.7880   -1.0110 C.3     1  UNL1        0.0171
     13  C10       -3.3590   -0.3550   -0.5610 C.ar    1  UNL1        0.0736
     14  N3        -3.7450   -1.2580   -1.5690 N.ar    1  UNL1       -0.1750
     15  N4        -4.6190   -2.2460   -1.2340 N.ar    1  UNL1       -0.2425
     16  C11       -5.1370   -2.4460   -0.0870 C.ar    1  UNL1        0.2725
     17  O2        -5.9630   -3.3980    0.1850 O.2     1  UNL1       -0.2658
     18  C12       -4.8150   -1.5880    1.0230 C.ar    1  UNL1        0.0496
     19  C13       -5.3920   -1.7910    2.2070 C.ar    1  UNL1       -0.0487
     20  C14       -5.0750   -0.8850    3.2480 C.ar    1  UNL1       -0.0610
     21  C15       -4.1630    0.1210    2.8870 C.ar    1  UNL1       -0.0611
     22  C16       -3.5950    0.3150    1.7160 C.ar    1  UNL1       -0.0521
     23  C17       -3.9080   -0.5860    0.6230 C.ar    1  UNL1        0.0106
     24  C18       -0.7540    2.3230   -0.6360 C.ar    1  UNL1       -0.0555
     25  C19        0.5870    2.5410   -0.3900 C.ar    1  UNL1       -0.0254
     26  C20        1.4290    1.5650   -0.1580 C.ar    1  UNL1        0.1355
     27  F1         2.7080    1.8700    0.1690 F       1  UNL1       -0.2047
     28 H           9.4149    2.0921   -0.2550 H       1  UNL1        0.4435
     29 H           8.6442    0.8677    0.6475 H       1  UNL1        0.4435
     30 H           7.6915    2.0656   -1.8158 H       1  UNL1        0.1476
     31 H           4.7195   -1.7294    0.6975 H       1  UNL1        0.0599
     32 H           4.6249   -2.1186   -0.9660 H       1  UNL1        0.0599
     33 H           3.5040    0.3947   -0.7434 H       1  UNL1        0.1499
     34 H          -0.5971   -1.0096   -0.4363 H       1  UNL1        0.0629
     35 H          -2.6005    0.7562   -2.0803 H       1  UNL1        0.0377
     36 H          -3.0549    1.5893   -0.4863 H       1  UNL1        0.0377
     37 H          -4.8773   -2.8696   -1.9507 H       1  UNL1        0.1921
     38 H          -6.0435   -2.5768    2.3590 H       1  UNL1        0.0625
     39 H          -5.4805   -0.9576    4.1942 H       1  UNL1        0.0618
     40 H          -3.9075    0.7892    3.6308 H       1  UNL1        0.0618
     41 H          -2.9362    1.0971    1.5771 H       1  UNL1        0.0624
     42 H          -1.4022    3.1087   -0.8020 H       1  UNL1        0.0621
     43 H           0.9396    3.5109   -0.3889 H       1  UNL1        0.0646
@<TRIPOS>UNITY_ATOM_ATTR
1 1
charge 1
@<TRIPOS>BOND
     1     1     2    2
     2     2     3    1
     3     3     4    3
     4     4     5    1
     5     5     6    1
     6     6     7   am
     7     7     8    2
     8     7     9    1
     9     9    10   ar
    10     9    26   ar
    11    10    11   ar
    12    11    12    1
    13    11    24   ar
    14    12    13    1
    15    13    14   ar
    16    13    23   ar
    17    14    15   ar
    18    15    16   ar
    19    16    17    2
    20    16    18   ar
    21    18    19   ar
    22    18    23   ar
    23    19    20   ar
    24    20    21   ar
    25    21    22   ar
    26    22    23   ar
    27    24    25   ar
    28    25    26   ar
    29    26    27    1
    30     1    28    1
    31     1    29    1
    32     2    30    1
    33     5    31    1
    34     5    32    1
    35     6    33    1
    36    10    34    1
    37    12    35    1
    38    12    36    1
    39    15    37    1
    40    19    38    1
    41    20    39    1
    42    21    40    1
    43    22    41    1
    44    24    42    1
    45    25    43    1
@<TRIPOS>MOLECULE
../data/bude_mols_rdkit_confs_charged/molecule_79.pdb
 43 45 0 0 0
SMALL
GASTEIGER

@<TRIPOS>ATOM
      1  N1         7.6830    0.2380    2.9710 N.2     1  UNL1       -0.2533
      2  C1         7.0640   -0.8840    2.9990 C.2     1  UNL1        0.2141
      3  C2         6.4030   -1.2960    1.7310 C.1     1  UNL1       -0.0046
      4  C3         5.8740   -1.6420    0.7240 C.1     1  UNL1       -0.0729
      5  C4         5.2090   -2.0560   -0.4900 C.3     1  UNL1        0.0743
      6  N2         3.7780   -2.0480   -0.4370 N.am    1  UNL1       -0.3004
      7  C5         2.9990   -0.8910   -0.2030 C.2     1  UNL1        0.2476
      8  O1         3.6220    0.1760   -0.0420 O.2     1  UNL1       -0.2701
      9  C6         1.5620   -0.9450   -0.1570 C.ar    1  UNL1        0.0721
     10  C7         0.8070    0.1360   -0.5630 C.ar    1  UNL1       -0.0433
     11  C8        -0.5570    0.1410   -0.5900 C.ar    1  UNL1       -0.0406
     12  C9        -1.3440    1.3560   -0.9180 C.3     1  UNL1        0.0171
     13  C10       -2.6250    1.3180   -0.2010 C.ar    1  UNL1        0.0736
     14  N3        -2.6340    1.0630    1.1110 N.ar    1  UNL1       -0.1750
     15  N4        -3.7440    0.9250    1.7950 N.ar    1  UNL1       -0.2425
     16  C11       -4.9500    1.0320    1.2180 C.ar    1  UNL1        0.2725
     17  O2        -6.0030    0.8960    1.8910 O.2     1  UNL1       -0.2658
     18  C12       -4.9700    1.2920   -0.1240 C.ar    1  UNL1        0.0496
     19  C13       -6.1950    1.4600   -0.7530 C.ar    1  UNL1       -0.0487
     20  C14       -6.3060    1.7660   -2.0750 C.ar    1  UNL1       -0.0610
     21  C15       -5.1760    1.9180   -2.8440 C.ar    1  UNL1       -0.0611
     22  C16       -3.9080    1.7480   -2.2160 C.ar    1  UNL1       -0.0521
     23  C17       -3.8410    1.4440   -0.8990 C.ar    1  UNL1        0.0106
     24  C18       -1.2540   -1.0200   -0.1830 C.ar    1  UNL1       -0.0555
     25  C19       -0.5240   -2.0880    0.2190 C.ar    1  UNL1       -0.0254
     26  C20        0.8380   -2.0910    0.2460 C.ar    1  UNL1        0.1355
     27  F1         1.5120   -3.1590    0.6610 F       1  UNL1       -0.2047
     28 H           8.1413    0.5676    3.7776 H       1  UNL1        0.4435
     29 H           7.7002    0.7702    2.1429 H       1  UNL1        0.4435
     30 H           7.0263   -1.4667    3.8499 H       1  UNL1        0.1476
     31 H           5.5258   -3.0524   -0.7172 H       1  UNL1        0.0599
     32 H           5.4815   -1.3390   -1.2360 H       1  UNL1        0.0599
     33 H           3.3067   -2.9018   -0.5720 H       1  UNL1        0.1499
     34 H           1.3025    0.9899   -0.8635 H       1  UNL1        0.0629
     35 H          -1.5260    1.3893   -1.9719 H       1  UNL1        0.0377
     36 H          -0.7959    2.2263   -0.6230 H       1  UNL1        0.0377
     37 H          -3.6907    0.7374    2.7600 H       1  UNL1        0.1921
     38 H          -7.0569    1.3485   -0.1964 H       1  UNL1        0.0625
     39 H          -7.2388    1.8840   -2.5004 H       1  UNL1        0.0618
     40 H          -5.2443    2.1487   -3.8476 H       1  UNL1        0.0618
     41 H          -3.0412    1.8567   -2.7654 H       1  UNL1        0.0624
     42 H          -2.2854   -1.0527   -0.1919 H       1  UNL1        0.0621
     43 H          -1.0234   -2.9398    0.5191 H       1  UNL1        0.0646
@<TRIPOS>UNITY_ATOM_ATTR
1 1
charge 1
@<TRIPOS>BOND
     1     1     2    2
     2     2     3    1
     3     3     4    3
     4     4     5    1
     5     5     6    1
     6     6     7   am
     7     7     8    2
     8     7     9    1
     9     9    10   ar
    10     9    26   ar
    11    10    11   ar
    12    11    12    1
    13    11    24   ar
    14    12    13    1
    15    13    14   ar
    16    13    23   ar
    17    14    15   ar
    18    15    16   ar
    19    16    17    2
    20    16    18   ar
    21    18    19   ar
    22    18    23   ar
    23    19    20   ar
    24    20    21   ar
    25    21    22   ar
    26    22    23   ar
    27    24    25   ar
    28    25    26   ar
    29    26    27    1
    30     1    28    1
    31     1    29    1
    32     2    30    1
    33     5    31    1
    34     5    32    1
    35     6    33    1
    36    10    34    1
    37    12    35    1
    38    12    36    1
    39    15    37    1
    40    19    38    1
    41    20    39    1
    42    21    40    1
    43    22    41    1
    44    24    42    1
    45    25    43    1
@<TRIPOS>MOLECULE
../data/bude_mols_rdkit_confs_charged/molecule_79.pdb
 43 45 0 0 0
SMALL
GASTEIGER

@<TRIPOS>ATOM
      1  N1         8.7670    2.0990    0.6470 N.2     1  UNL1       -0.2533
      2  C1         7.6470    2.2330    0.0380 C.2     1  UNL1        0.2141
      3  C2         6.5110    1.4420    0.4530 C.1     1  UNL1       -0.0046
      4  C3         5.5690    0.7870    0.8190 C.1     1  UNL1       -0.0729
      5  C4         4.4360   -0.0080    1.2480 C.3     1  UNL1        0.0743
      6  N2         3.4130    0.0140    0.1760 N.am    1  UNL1       -0.3004
      7  C5         2.2070   -0.6850    0.3510 C.2     1  UNL1        0.2476
      8  O1         2.0970   -1.3020    1.4690 O.2     1  UNL1       -0.2701
      9  C6         1.1000   -0.7660   -0.6020 C.ar    1  UNL1        0.0721
     10  C7        -0.0650   -1.3790   -0.1780 C.ar    1  UNL1       -0.0433
     11  C8        -1.1840   -1.5020   -0.9910 C.ar    1  UNL1       -0.0406
     12  C9        -2.4050   -2.1940   -0.4970 C.3     1  UNL1        0.0171
     13  C10       -3.0820   -1.4140    0.5630 C.ar    1  UNL1        0.0736
     14  N3        -2.7780   -1.7160    1.8760 N.ar    1  UNL1       -0.1750
     15  N4        -3.3050   -1.0220    2.8620 N.ar    1  UNL1       -0.2425
     16  C11       -4.1410   -0.0160    2.6280 C.ar    1  UNL1        0.2725
     17  O2        -4.6570    0.6640    3.5820 O.2     1  UNL1       -0.2658
     18  C12       -4.4990    0.3510    1.3510 C.ar    1  UNL1        0.0496
     19  C13       -5.3810    1.3930    1.1160 C.ar    1  UNL1       -0.0487
     20  C14       -5.7170    1.7110   -0.1640 C.ar    1  UNL1       -0.0610
     21  C15       -5.1690    0.9830   -1.2290 C.ar    1  UNL1       -0.0611
     22  C16       -4.2840   -0.0620   -0.9850 C.ar    1  UNL1       -0.0521
     23  C17       -3.9410   -0.3860    0.2930 C.ar    1  UNL1        0.0106
     24  C18       -1.1130   -0.9930   -2.2560 C.ar    1  UNL1       -0.0555
     25  C19        0.0360   -0.3670   -2.7320 C.ar    1  UNL1       -0.0254
     26  C20        1.1110   -0.2760   -1.8760 C.ar    1  UNL1        0.1355
     27  F1         2.2310    0.3240   -2.3370 F       1  UNL1       -0.2047
     28 H           9.5452    2.6345    0.3698 H       1  UNL1        0.4435
     29 H           8.8490    1.4606    1.3919 H       1  UNL1        0.4435
     30 H           7.5572    2.9012   -0.7433 H       1  UNL1        0.1476
     31 H           4.0260    0.4034    2.1466 H       1  UNL1        0.0599
     32 H           4.7455   -1.0143    1.4386 H       1  UNL1        0.0599
     33 H           3.5777    0.5160   -0.6547 H       1  UNL1        0.1499
     34 H          -0.1042   -1.7600    0.7803 H       1  UNL1        0.0629
     35 H          -2.1272   -3.1487   -0.1018 H       1  UNL1        0.0377
     36 H          -3.0832   -2.3027   -1.3175 H       1  UNL1        0.0377
     37 H          -3.0754   -1.2526    3.7912 H       1  UNL1        0.1921
     38 H          -5.7803    1.9242    1.9056 H       1  UNL1        0.0625
     39 H          -6.3731    2.4856   -0.3498 H       1  UNL1        0.0618
     40 H          -5.4236    1.2237   -2.1997 H       1  UNL1        0.0618
     41 H          -3.8859   -0.5937   -1.7748 H       1  UNL1        0.0624
     42 H          -1.9336   -1.0745   -2.8764 H       1  UNL1        0.0621
     43 H           0.0804    0.0143   -3.6899 H       1  UNL1        0.0646
@<TRIPOS>UNITY_ATOM_ATTR
1 1
charge 1
@<TRIPOS>BOND
     1     1     2    2
     2     2     3    1
     3     3     4    3
     4     4     5    1
     5     5     6    1
     6     6     7   am
     7     7     8    2
     8     7     9    1
     9     9    10   ar
    10     9    26   ar
    11    10    11   ar
    12    11    12    1
    13    11    24   ar
    14    12    13    1
    15    13    14   ar
    16    13    23   ar
    17    14    15   ar
    18    15    16   ar
    19    16    17    2
    20    16    18   ar
    21    18    19   ar
    22    18    23   ar
    23    19    20   ar
    24    20    21   ar
    25    21    22   ar
    26    22    23   ar
    27    24    25   ar
    28    25    26   ar
    29    26    27    1
    30     1    28    1
    31     1    29    1
    32     2    30    1
    33     5    31    1
    34     5    32    1
    35     6    33    1
    36    10    34    1
    37    12    35    1
    38    12    36    1
    39    15    37    1
    40    19    38    1
    41    20    39    1
    42    21    40    1
    43    22    41    1
    44    24    42    1
    45    25    43    1
@<TRIPOS>MOLECULE
../data/bude_mols_rdkit_confs_charged/molecule_79.pdb
 43 45 0 0 0
SMALL
GASTEIGER

@<TRIPOS>ATOM
      1  N1         8.7230    2.7100    0.0610 N.2     1  UNL1       -0.2533
      2  C1         8.3070    1.4890    0.1740 C.2     1  UNL1        0.2141
      3  C2         7.1100    0.9900   -0.4830 C.1     1  UNL1       -0.0046
      4  C3         6.0980    0.5900   -1.0430 C.1     1  UNL1       -0.0729
      5  C4         5.0110    0.1380   -1.6610 C.3     1  UNL1        0.0743
      6  N2         3.8700   -0.5690   -1.3690 N.am    1  UNL1       -0.3004
      7  C5         2.7990   -0.3190   -0.4710 C.2     1  UNL1        0.2476
      8  O1         2.9730    0.6680    0.2850 O.2     1  UNL1       -0.2701
      9  C6         1.5450   -1.0920   -0.3970 C.ar    1  UNL1        0.0721
     10  C7         0.5310   -0.5770    0.3800 C.ar    1  UNL1       -0.0433
     11  C8        -0.7950   -1.0640    0.4030 C.ar    1  UNL1       -0.0406
     12  C9        -1.7410   -0.4050    1.3350 C.3     1  UNL1        0.0171
     13  C10       -3.1450   -0.6830    1.2130 C.ar    1  UNL1        0.0736
     14  N3        -3.6230   -1.9590    1.3760 N.ar    1  UNL1       -0.1750
     15  N4        -4.9000   -2.2500    1.2470 N.ar    1  UNL1       -0.2425
     16  C11       -5.8500   -1.3110    0.9400 C.ar    1  UNL1        0.2725
     17  O2        -7.0720   -1.5860    0.8100 O.2     1  UNL1       -0.2658
     18  C12       -5.4430   -0.0240    0.7640 C.ar    1  UNL1        0.0496
     19  C13       -6.4200    0.9380    0.5040 C.ar    1  UNL1       -0.0487
     20  C14       -6.0710    2.2790    0.3750 C.ar    1  UNL1       -0.0610
     21  C15       -4.7210    2.6080    0.5110 C.ar    1  UNL1       -0.0611
     22  C16       -3.8070    1.6190    0.7600 C.ar    1  UNL1       -0.0521
     23  C17       -4.1000    0.2640    0.9010 C.ar    1  UNL1        0.0106
     24  C18       -1.0740   -2.1040   -0.3890 C.ar    1  UNL1       -0.0555
     25  C19       -0.1030   -2.6670   -1.1820 C.ar    1  UNL1       -0.0254
     26  C20        1.2230   -2.1410   -1.1720 C.ar    1  UNL1        0.1355
     27  F1         2.1060   -2.8040   -1.9410 F       1  UNL1       -0.2047
     28 H           9.5411    2.9965    0.5278 H       1  UNL1        0.4435
     29 H           8.2212    3.3518   -0.4917 H       1  UNL1        0.4435
     30 H           8.8524    0.8375    0.7597 H       1  UNL1        0.1476
     31 H           5.4377   -0.4540   -2.4436 H       1  UNL1        0.0599
     32 H           4.5111    1.0814   -1.5910 H       1  UNL1        0.0599
     33 H           3.7775   -1.4065   -1.8781 H       1  UNL1        0.1499
     34 H           0.7565    0.2239    0.9905 H       1  UNL1        0.0629
     35 H          -1.6184    0.6508    1.2119 H       1  UNL1        0.0377
     36 H          -1.4815   -0.8076    2.2918 H       1  UNL1        0.0377
     37 H          -5.1854   -3.1832    1.3767 H       1  UNL1        0.1921
     38 H          -7.4072    0.6533    0.4068 H       1  UNL1        0.0625
     39 H          -6.7825    3.0022    0.1861 H       1  UNL1        0.0618
     40 H          -4.4140    3.5895    0.4245 H       1  UNL1        0.0618
     41 H          -2.8184    1.9009    0.8508 H       1  UNL1        0.0624
     42 H          -2.0312   -2.4893   -0.4052 H       1  UNL1        0.0621
     43 H          -0.3335   -3.4716   -1.7857 H       1  UNL1        0.0646
@<TRIPOS>UNITY_ATOM_ATTR
1 1
charge 1
@<TRIPOS>BOND
     1     1     2    2
     2     2     3    1
     3     3     4    3
     4     4     5    1
     5     5     6    1
     6     6     7   am
     7     7     8    2
     8     7     9    1
     9     9    10   ar
    10     9    26   ar
    11    10    11   ar
    12    11    12    1
    13    11    24   ar
    14    12    13    1
    15    13    14   ar
    16    13    23   ar
    17    14    15   ar
    18    15    16   ar
    19    16    17    2
    20    16    18   ar
    21    18    19   ar
    22    18    23   ar
    23    19    20   ar
    24    20    21   ar
    25    21    22   ar
    26    22    23   ar
    27    24    25   ar
    28    25    26   ar
    29    26    27    1
    30     1    28    1
    31     1    29    1
    32     2    30    1
    33     5    31    1
    34     5    32    1
    35     6    33    1
    36    10    34    1
    37    12    35    1
    38    12    36    1
    39    15    37    1
    40    19    38    1
    41    20    39    1
    42    21    40    1
    43    22    41    1
    44    24    42    1
    45    25    43    1
@<TRIPOS>MOLECULE
../data/bude_mols_rdkit_confs_charged/molecule_79.pdb
 43 45 0 0 0
SMALL
GASTEIGER

@<TRIPOS>ATOM
      1  N1         6.1970    1.5090    0.7920 N.2     1  UNL1       -0.2533
      2  C1         6.7450    0.4490    0.3200 C.2     1  UNL1        0.2141
      3  C2         5.9260   -0.5930   -0.2150 C.1     1  UNL1       -0.0046
      4  C3         5.2330   -1.4520   -0.6610 C.1     1  UNL1       -0.0729
      5  C4         4.3720   -2.4890   -1.1970 C.3     1  UNL1        0.0743
      6  N2         3.1560   -2.6050   -0.4010 N.am    1  UNL1       -0.3004
      7  C5         2.2610   -1.5330   -0.2310 C.2     1  UNL1        0.2476
      8  O1         2.5890   -0.4390   -0.8240 O.2     1  UNL1       -0.2701
      9  C6         1.0290   -1.5770    0.5460 C.ar    1  UNL1        0.0721
     10  C7         0.3460   -0.3780    0.8090 C.ar    1  UNL1       -0.0433
     11  C8        -0.8130   -0.3050    1.5410 C.ar    1  UNL1       -0.0406
     12  C9        -1.4390    1.0250    1.7860 C.3     1  UNL1        0.0171
     13  C10       -2.0240    1.6460    0.5850 C.ar    1  UNL1        0.0736
     14  N3        -1.2950    2.5730   -0.1160 N.ar    1  UNL1       -0.1750
     15  N4        -1.7430    3.1410   -1.2200 N.ar    1  UNL1       -0.2425
     16  C11       -2.9320    2.8740   -1.7550 C.ar    1  UNL1        0.2725
     17  O2        -3.3260    3.4460   -2.8240 O.2     1  UNL1       -0.2658
     18  C12       -3.7230    1.9530   -1.1070 C.ar    1  UNL1        0.0496
     19  C13       -4.9600    1.6760   -1.6440 C.ar    1  UNL1       -0.0487
     20  C14       -5.7710    0.7640   -1.0000 C.ar    1  UNL1       -0.0610
     21  C15       -5.3210    0.1620    0.1560 C.ar    1  UNL1       -0.0611
     22  C16       -4.0730    0.4530    0.6810 C.ar    1  UNL1       -0.0521
     23  C17       -3.2490    1.3550    0.0570 C.ar    1  UNL1        0.0106
     24  C18       -1.3490   -1.4520    2.0540 C.ar    1  UNL1       -0.0555
     25  C19       -0.7190   -2.6530    1.8250 C.ar    1  UNL1       -0.0254
     26  C20        0.4510   -2.6930    1.0800 C.ar    1  UNL1        0.1355
     27  F1         1.0470   -3.9030    0.8610 F       1  UNL1       -0.2047
     28 H           6.7567    2.2297    1.1617 H       1  UNL1        0.4435
     29 H           5.2169    1.6016    0.7845 H       1  UNL1        0.4435
     30 H           7.7722    0.3494    0.3267 H       1  UNL1        0.1476
     31 H           4.8938   -3.4230   -1.1810 H       1  UNL1        0.0599
     32 H           4.1053   -2.2327   -2.2010 H       1  UNL1        0.0599
     33 H           2.9538   -3.4650    0.0334 H       1  UNL1        0.1499
     34 H           0.7380    0.4983    0.4302 H       1  UNL1        0.0629
     35 H          -0.6891    1.6830    2.1729 H       1  UNL1        0.0377
     36 H          -2.2435    0.8650    2.4730 H       1  UNL1        0.0377
     37 H          -1.1661    3.7981   -1.6724 H       1  UNL1        0.1921
     38 H          -5.2742    2.1408   -2.5102 H       1  UNL1        0.0625
     39 H          -6.7032    0.5352   -1.3791 H       1  UNL1        0.0618
     40 H          -5.9266   -0.5193    0.6398 H       1  UNL1        0.0618
     41 H          -3.7607   -0.0120    1.5478 H       1  UNL1        0.0624
     42 H          -2.2188   -1.4177    2.6084 H       1  UNL1        0.0621
     43 H          -1.1167   -3.5251    2.2075 H       1  UNL1        0.0646
@<TRIPOS>UNITY_ATOM_ATTR
1 1
charge 1
@<TRIPOS>BOND
     1     1     2    2
     2     2     3    1
     3     3     4    3
     4     4     5    1
     5     5     6    1
     6     6     7   am
     7     7     8    2
     8     7     9    1
     9     9    10   ar
    10     9    26   ar
    11    10    11   ar
    12    11    12    1
    13    11    24   ar
    14    12    13    1
    15    13    14   ar
    16    13    23   ar
    17    14    15   ar
    18    15    16   ar
    19    16    17    2
    20    16    18   ar
    21    18    19   ar
    22    18    23   ar
    23    19    20   ar
    24    20    21   ar
    25    21    22   ar
    26    22    23   ar
    27    24    25   ar
    28    25    26   ar
    29    26    27    1
    30     1    28    1
    31     1    29    1
    32     2    30    1
    33     5    31    1
    34     5    32    1
    35     6    33    1
    36    10    34    1
    37    12    35    1
    38    12    36    1
    39    15    37    1
    40    19    38    1
    41    20    39    1
    42    21    40    1
    43    22    41    1
    44    24    42    1
    45    25    43    1
@<TRIPOS>MOLECULE
../data/bude_mols_rdkit_confs_charged/molecule_79.pdb
 43 45 0 0 0
SMALL
GASTEIGER

@<TRIPOS>ATOM
      1  N1         6.5730    2.2390    0.8710 N.2     1  UNL1       -0.2533
      2  C1         6.8930    1.2340    1.6370 C.2     1  UNL1        0.2141
      3  C2         6.1910   -0.0040    1.4850 C.1     1  UNL1       -0.0046
      4  C3         5.6050   -1.0760    1.3640 C.1     1  UNL1       -0.0729
      5  C4         4.9360   -2.3520    1.2180 C.3     1  UNL1        0.0743
      6  N2         3.7670   -2.3650    0.4010 N.am    1  UNL1       -0.3004
      7  C5         2.5740   -1.6430    0.6020 C.2     1  UNL1        0.2476
      8  O1         2.5610   -0.8970    1.6320 O.2     1  UNL1       -0.2701
      9  C6         1.3980   -1.6890   -0.2430 C.ar    1  UNL1        0.0721
     10  C7         0.2070   -1.2540    0.3030 C.ar    1  UNL1       -0.0433
     11  C8        -0.9470   -1.3140   -0.3970 C.ar    1  UNL1       -0.0406
     12  C9        -2.2150   -0.8540    0.1960 C.3     1  UNL1        0.0171
     13  C10       -2.5800    0.5060   -0.2320 C.ar    1  UNL1        0.0736
     14  N3        -1.8180    1.2510   -1.0150 N.ar    1  UNL1       -0.1750
     15  N4        -2.1830    2.4710   -1.3850 N.ar    1  UNL1       -0.2425
     16  C11       -3.3520    2.9430   -0.9450 C.ar    1  UNL1        0.2725
     17  O2        -3.7570    4.1150   -1.2680 O.2     1  UNL1       -0.2658
     18  C12       -4.2050    2.2260   -0.1230 C.ar    1  UNL1        0.0496
     19  C13       -5.4030    2.7760    0.2910 C.ar    1  UNL1       -0.0487
     20  C14       -6.2120    2.0070    1.1110 C.ar    1  UNL1       -0.0610
     21  C15       -5.8190    0.7600    1.4790 C.ar    1  UNL1       -0.0611
     22  C16       -4.6210    0.2030    1.0670 C.ar    1  UNL1       -0.0521
     23  C17       -3.8140    0.9750    0.2480 C.ar    1  UNL1        0.0106
     24  C18       -0.9490   -1.8180   -1.6900 C.ar    1  UNL1       -0.0555
     25  C19        0.2220   -2.2470   -2.2350 C.ar    1  UNL1       -0.0254
     26  C20        1.4000   -2.1900   -1.5290 C.ar    1  UNL1        0.1355
     27  F1         2.5160   -2.6290   -2.1510 F       1  UNL1       -0.2047
     28 H           7.0458    3.0977    0.9624 H       1  UNL1        0.4435
     29 H           5.8585    2.1394    0.2011 H       1  UNL1        0.4435
     30 H           7.6407    1.3295    2.3419 H       1  UNL1        0.1476
     31 H           4.6542   -2.6856    2.1949 H       1  UNL1        0.0599
     32 H           5.6387   -2.9861    0.7190 H       1  UNL1        0.0599
     33 H           3.7972   -2.9447   -0.3942 H       1  UNL1        0.1499
     34 H           0.1980   -0.8761    1.2633 H       1  UNL1        0.0629
     35 H          -2.1182   -0.8634    1.2616 H       1  UNL1        0.0377
     36 H          -2.9870   -1.5162   -0.1363 H       1  UNL1        0.0377
     37 H          -1.6067    3.0149   -1.9692 H       1  UNL1        0.1921
     38 H          -5.6847    3.7252   -0.0002 H       1  UNL1        0.0625
     39 H          -7.1144    2.3819    1.4428 H       1  UNL1        0.0618
     40 H          -6.4386    0.2057    2.0904 H       1  UNL1        0.0618
     41 H          -4.3410   -0.7468    1.3576 H       1  UNL1        0.0624
     42 H          -1.8265   -1.8668   -2.2309 H       1  UNL1        0.0621
     43 H           0.2256   -2.6221   -3.1964 H       1  UNL1        0.0646
@<TRIPOS>UNITY_ATOM_ATTR
1 1
charge 1
@<TRIPOS>BOND
     1     1     2    2
     2     2     3    1
     3     3     4    3
     4     4     5    1
     5     5     6    1
     6     6     7   am
     7     7     8    2
     8     7     9    1
     9     9    10   ar
    10     9    26   ar
    11    10    11   ar
    12    11    12    1
    13    11    24   ar
    14    12    13    1
    15    13    14   ar
    16    13    23   ar
    17    14    15   ar
    18    15    16   ar
    19    16    17    2
    20    16    18   ar
    21    18    19   ar
    22    18    23   ar
    23    19    20   ar
    24    20    21   ar
    25    21    22   ar
    26    22    23   ar
    27    24    25   ar
    28    25    26   ar
    29    26    27    1
    30     1    28    1
    31     1    29    1
    32     2    30    1
    33     5    31    1
    34     5    32    1
    35     6    33    1
    36    10    34    1
    37    12    35    1
    38    12    36    1
    39    15    37    1
    40    19    38    1
    41    20    39    1
    42    21    40    1
    43    22    41    1
    44    24    42    1
    45    25    43    1
@<TRIPOS>MOLECULE
../data/bude_mols_rdkit_confs_charged/molecule_79.pdb
 43 45 0 0 0
SMALL
GASTEIGER

@<TRIPOS>ATOM
      1  N1         9.3480    1.5360    0.9070 N.2     1  UNL1       -0.2533
      2  C1         8.5990    0.8700    1.7700 C.2     1  UNL1        0.2141
      3  C2         7.4480    0.3180    1.2890 C.1     1  UNL1       -0.0046
      4  C3         6.2410   -0.2760    0.7980 C.1     1  UNL1       -0.0729
      5  C4         5.0300   -0.8720    0.2990 C.3     1  UNL1        0.0743
      6  N2         3.8860   -0.0560    0.4610 N.am    1  UNL1       -0.3004
      7  C5         2.7110   -0.7740   -0.1720 C.2     1  UNL1        0.2476
      8  O1         3.0230   -1.8780   -0.6760 O.2     1  UNL1       -0.2701
      9  C6         1.4440   -0.1430   -0.1230 C.ar    1  UNL1        0.0721
     10  C7         0.3050   -0.7670    0.2910 C.ar    1  UNL1       -0.0433
     11  C8        -0.9570   -0.0950    0.3020 C.ar    1  UNL1       -0.0406
     12  C9        -2.0610   -0.8690    0.8800 C.3     1  UNL1        0.0171
     13  C10       -3.2880   -1.2000    0.1540 C.ar    1  UNL1        0.0736
     14  N3        -3.4070   -2.4390   -0.5090 N.ar    1  UNL1       -0.1750
     15  N4        -4.4400   -2.7690   -1.2150 N.ar    1  UNL1       -0.2425
     16  C11       -5.5120   -1.9940   -1.4030 C.ar    1  UNL1        0.2725
     17  O2        -6.4890   -2.3340   -2.0730 O.2     1  UNL1       -0.2658
     18  C12       -5.4660   -0.7190   -0.7660 C.ar    1  UNL1        0.0496
     19  C13       -6.5510    0.1440   -0.9830 C.ar    1  UNL1       -0.0487
     20  C14       -6.4860    1.4270   -0.4080 C.ar    1  UNL1       -0.0610
     21  C15       -5.4240    1.8420    0.3460 C.ar    1  UNL1       -0.0611
     22  C16       -4.3760    0.9220    0.5260 C.ar    1  UNL1       -0.0521
     23  C17       -4.3780   -0.3800   -0.0330 C.ar    1  UNL1        0.0106
     24  C18       -1.0340    1.1970   -0.1200 C.ar    1  UNL1       -0.0555
     25  C19        0.1240    1.7480   -0.5230 C.ar    1  UNL1       -0.0254
     26  C20        1.3710    1.2690   -0.5830 C.ar    1  UNL1        0.1355
     27  F1         2.5070    1.7920   -1.0080 F       1  UNL1       -0.2047
     28 H          10.1887    1.9533    1.2043 H       1  UNL1        0.4435
     29 H           9.0648    1.6145   -0.0326 H       1  UNL1        0.4435
     30 H           8.8724    0.7726    2.7603 H       1  UNL1        0.1476
     31 H           4.8659   -1.7914    0.8212 H       1  UNL1        0.0599
     32 H           5.1636   -1.0180   -0.7525 H       1  UNL1        0.0599
     33 H           3.8580    0.8219    0.9057 H       1  UNL1        0.1499
     34 H           0.3548   -1.7490    0.6043 H       1  UNL1        0.0629
     35 H          -2.3732   -0.3275    1.7484 H       1  UNL1        0.0377
     36 H          -1.6095   -1.8346    0.9738 H       1  UNL1        0.0377
     37 H          -4.4357   -3.6549   -1.6445 H       1  UNL1        0.1921
     38 H          -7.3660   -0.1510   -1.5432 H       1  UNL1        0.0625
     39 H          -7.2705    2.0797   -0.5616 H       1  UNL1        0.0618
     40 H          -5.3929    2.7854    0.7632 H       1  UNL1        0.0618
     41 H          -3.5640    1.2097    1.0942 H       1  UNL1        0.0624
     42 H          -1.9238    1.7196   -0.1299 H       1  UNL1        0.0621
     43 H           0.0337    2.7237   -0.8468 H       1  UNL1        0.0646
@<TRIPOS>UNITY_ATOM_ATTR
1 1
charge 1
@<TRIPOS>BOND
     1     1     2    2
     2     2     3    1
     3     3     4    3
     4     4     5    1
     5     5     6    1
     6     6     7   am
     7     7     8    2
     8     7     9    1
     9     9    10   ar
    10     9    26   ar
    11    10    11   ar
    12    11    12    1
    13    11    24   ar
    14    12    13    1
    15    13    14   ar
    16    13    23   ar
    17    14    15   ar
    18    15    16   ar
    19    16    17    2
    20    16    18   ar
    21    18    19   ar
    22    18    23   ar
    23    19    20   ar
    24    20    21   ar
    25    21    22   ar
    26    22    23   ar
    27    24    25   ar
    28    25    26   ar
    29    26    27    1
    30     1    28    1
    31     1    29    1
    32     2    30    1
    33     5    31    1
    34     5    32    1
    35     6    33    1
    36    10    34    1
    37    12    35    1
    38    12    36    1
    39    15    37    1
    40    19    38    1
    41    20    39    1
    42    21    40    1
    43    22    41    1
    44    24    42    1
    45    25    43    1
@<TRIPOS>MOLECULE
../data/bude_mols_rdkit_confs_charged/molecule_79.pdb
 43 45 0 0 0
SMALL
GASTEIGER

@<TRIPOS>ATOM
      1  N1         9.0600    1.1330    0.2100 N.2     1  UNL1       -0.2533
      2  C1         8.0160    1.7330    0.6630 C.2     1  UNL1        0.2141
      3  C2         6.8120    0.8730    0.6850 C.1     1  UNL1       -0.0046
      4  C3         5.7060    0.0880    0.7220 C.1     1  UNL1       -0.0729
      5  C4         4.8550   -0.4980    0.7600 C.3     1  UNL1        0.0743
      6  N2         3.4220   -0.5520    0.6440 N.am    1  UNL1       -0.3004
      7  C5         2.9320    0.3180   -0.4870 C.2     1  UNL1        0.2476
      8  O1         3.6830    1.1030   -0.9640 O.2     1  UNL1       -0.2701
      9  C6         1.5260   -0.0230   -0.8430 C.ar    1  UNL1        0.0721
     10  C7         0.4570    0.3240   -0.1440 C.ar    1  UNL1       -0.0433
     11  C8        -0.7580   -0.4200   -0.2580 C.ar    1  UNL1       -0.0406
     12  C9        -1.8350   -0.1400    0.6400 C.3     1  UNL1        0.0171
     13  C10       -3.0220    0.6400    0.2180 C.ar    1  UNL1        0.0736
     14  N3        -2.9020    1.9550    0.1490 N.ar    1  UNL1       -0.1750
     15  N4        -3.9800    2.7310    0.2480 N.ar    1  UNL1       -0.2425
     16  C11       -5.2040    2.2450    0.4180 C.ar    1  UNL1        0.2725
     17  O2        -6.2620    2.9650    0.5030 O.2     1  UNL1       -0.2658
     18  C12       -5.3860    0.8740    0.4760 C.ar    1  UNL1        0.0496
     19  C13       -6.6140    0.2970    0.5730 C.ar    1  UNL1       -0.0487
     20  C14       -6.7780   -1.0610    0.5120 C.ar    1  UNL1       -0.0610
     21  C15       -5.6690   -1.8790    0.3470 C.ar    1  UNL1       -0.0611
     22  C16       -4.4380   -1.2830    0.2840 C.ar    1  UNL1       -0.0521
     23  C17       -4.2550    0.0610    0.3440 C.ar    1  UNL1        0.0106
     24  C18       -0.7350   -1.4860   -1.1130 C.ar    1  UNL1       -0.0555
     25  C19        0.3590   -1.8400   -1.8480 C.ar    1  UNL1       -0.0254
     26  C20        1.5080   -1.1320   -1.7070 C.ar    1  UNL1        0.1355
     27  F1         2.6380   -1.4880   -2.3210 F       1  UNL1       -0.2047
     28 H           9.9174    1.6133    0.1517 H       1  UNL1        0.4435
     29 H           9.0015    0.1935   -0.0784 H       1  UNL1        0.4435
     30 H           8.0180    2.7153    0.9793 H       1  UNL1        0.1476
     31 H           4.9674   -0.9077    1.7421 H       1  UNL1        0.0599
     32 H           4.9440   -0.6898   -0.2889 H       1  UNL1        0.0599
     33 H           2.8368   -1.0874    1.2272 H       1  UNL1        0.1499
     34 H           0.5011    1.1383    0.4884 H       1  UNL1        0.0629
     35 H          -1.4072    0.3879    1.4666 H       1  UNL1        0.0377
     36 H          -2.2502   -1.1122    0.8055 H       1  UNL1        0.0377
     37 H          -3.8643    3.7071    0.1927 H       1  UNL1        0.1921
     38 H          -7.4436    0.8984    0.6958 H       1  UNL1        0.0625
     39 H          -7.7207   -1.4739    0.5883 H       1  UNL1        0.0618
     40 H          -5.7690   -2.9036    0.2741 H       1  UNL1        0.0618
     41 H          -3.6065   -1.8863    0.1859 H       1  UNL1        0.0624
     42 H          -1.5914   -2.0540   -1.2079 H       1  UNL1        0.0621
     43 H           0.3130   -2.6362   -2.5029 H       1  UNL1        0.0646
@<TRIPOS>UNITY_ATOM_ATTR
1 1
charge 1
@<TRIPOS>BOND
     1     1     2    2
     2     2     3    1
     3     3     4    3
     4     4     5    1
     5     5     6    1
     6     6     7   am
     7     7     8    2
     8     7     9    1
     9     9    10   ar
    10     9    26   ar
    11    10    11   ar
    12    11    12    1
    13    11    24   ar
    14    12    13    1
    15    13    14   ar
    16    13    23   ar
    17    14    15   ar
    18    15    16   ar
    19    16    17    2
    20    16    18   ar
    21    18    19   ar
    22    18    23   ar
    23    19    20   ar
    24    20    21   ar
    25    21    22   ar
    26    22    23   ar
    27    24    25   ar
    28    25    26   ar
    29    26    27    1
    30     1    28    1
    31     1    29    1
    32     2    30    1
    33     5    31    1
    34     5    32    1
    35     6    33    1
    36    10    34    1
    37    12    35    1
    38    12    36    1
    39    15    37    1
    40    19    38    1
    41    20    39    1
    42    21    40    1
    43    22    41    1
    44    24    42    1
    45    25    43    1
@<TRIPOS>MOLECULE
../data/bude_mols_rdkit_confs_charged/molecule_79.pdb
 43 45 0 0 0
SMALL
GASTEIGER

@<TRIPOS>ATOM
      1  N1         7.5160    3.4080    0.1670 N.2     1  UNL1       -0.2533
      2  C1         7.5440    2.4230    0.9940 C.2     1  UNL1        0.2141
      3  C2         6.4370    1.5360    1.1460 C.1     1  UNL1       -0.0046
      4  C3         5.4830    0.7970    1.2820 C.1     1  UNL1       -0.0729
      5  C4         4.3290   -0.0720    1.4610 C.3     1  UNL1        0.0743
      6  N2         3.4070    0.0250    0.3170 N.am    1  UNL1       -0.3004
      7  C5         2.2240   -0.7470    0.3350 C.2     1  UNL1        0.2476
      8  O1         2.0450   -1.4970    1.3890 O.2     1  UNL1       -0.2701
      9  C6         1.2250   -0.7630   -0.7000 C.ar    1  UNL1        0.0721
     10  C7         0.0430   -1.4600   -0.4640 C.ar    1  UNL1       -0.0433
     11  C8        -0.9910   -1.5170   -1.4140 C.ar    1  UNL1       -0.0406
     12  C9        -2.1840   -2.3210   -1.0450 C.3     1  UNL1        0.0171
     13  C10       -2.9260   -1.6100    0.0040 C.ar    1  UNL1        0.0736
     14  N3        -2.6650   -1.9430    1.3030 N.ar    1  UNL1       -0.1750
     15  N4        -3.2240   -1.3480    2.3230 N.ar    1  UNL1       -0.2425
     16  C11       -4.0940   -0.3700    2.1150 C.ar    1  UNL1        0.2725
     17  O2        -4.6660    0.2410    3.0870 O.2     1  UNL1       -0.2658
     18  C12       -4.4300    0.0440    0.8490 C.ar    1  UNL1        0.0496
     19  C13       -5.3490    1.0530    0.6260 C.ar    1  UNL1       -0.0487
     20  C14       -5.6410    1.3930   -0.6720 C.ar    1  UNL1       -0.0610
     21  C15       -5.0490    0.7590   -1.7400 C.ar    1  UNL1       -0.0611
     22  C16       -4.1320   -0.2480   -1.5280 C.ar    1  UNL1       -0.0521
     23  C17       -3.8190   -0.6070   -0.2370 C.ar    1  UNL1        0.0106
     24  C18       -0.8220   -0.8670   -2.6040 C.ar    1  UNL1       -0.0555
     25  C19        0.3350   -0.1710   -2.8640 C.ar    1  UNL1       -0.0254
     26  C20        1.3310   -0.1400   -1.8970 C.ar    1  UNL1        0.1355
     27  F1         2.4430    0.5490   -2.2120 F       1  UNL1       -0.2047
     28 H           8.2956    4.0034    0.0841 H       1  UNL1        0.4435
     29 H           6.7149    3.5664   -0.3830 H       1  UNL1        0.4435
     30 H           8.3910    2.2702    1.5634 H       1  UNL1        0.1476
     31 H           3.8109    0.2149    2.3522 H       1  UNL1        0.0599
     32 H           4.6737   -1.0824    1.5337 H       1  UNL1        0.0599
     33 H           3.6106    0.6152   -0.4442 H       1  UNL1        0.1499
     34 H          -0.0775   -1.9499    0.4363 H       1  UNL1        0.0629
     35 H          -1.8743   -3.2783   -0.6809 H       1  UNL1        0.0377
     36 H          -2.8088   -2.4602   -1.9024 H       1  UNL1        0.0377
     37 H          -3.0002   -1.6246    3.2410 H       1  UNL1        0.1921
     38 H          -5.8039    1.5382    1.4151 H       1  UNL1        0.0625
     39 H          -6.3240    2.1455   -0.8515 H       1  UNL1        0.0618
     40 H          -5.2924    1.0384   -2.7032 H       1  UNL1        0.0618
     41 H          -3.6863   -0.7262   -2.3266 H       1  UNL1        0.0624
     42 H          -1.5699   -0.8988   -3.3144 H       1  UNL1        0.0621
     43 H           0.4610    0.3201   -3.7628 H       1  UNL1        0.0646
@<TRIPOS>UNITY_ATOM_ATTR
1 1
charge 1
@<TRIPOS>BOND
     1     1     2    2
     2     2     3    1
     3     3     4    3
     4     4     5    1
     5     5     6    1
     6     6     7   am
     7     7     8    2
     8     7     9    1
     9     9    10   ar
    10     9    26   ar
    11    10    11   ar
    12    11    12    1
    13    11    24   ar
    14    12    13    1
    15    13    14   ar
    16    13    23   ar
    17    14    15   ar
    18    15    16   ar
    19    16    17    2
    20    16    18   ar
    21    18    19   ar
    22    18    23   ar
    23    19    20   ar
    24    20    21   ar
    25    21    22   ar
    26    22    23   ar
    27    24    25   ar
    28    25    26   ar
    29    26    27    1
    30     1    28    1
    31     1    29    1
    32     2    30    1
    33     5    31    1
    34     5    32    1
    35     6    33    1
    36    10    34    1
    37    12    35    1
    38    12    36    1
    39    15    37    1
    40    19    38    1
    41    20    39    1
    42    21    40    1
    43    22    41    1
    44    24    42    1
    45    25    43    1
@<TRIPOS>MOLECULE
../data/bude_mols_rdkit_confs_charged/molecule_79.pdb
 43 45 0 0 0
SMALL
GASTEIGER

@<TRIPOS>ATOM
      1  N1         8.8500   -0.5910   -0.4180 N.2     1  UNL1       -0.2533
      2  C1         8.2530    0.5060   -0.0670 C.2     1  UNL1        0.2141
      3  C2         6.9020    0.4920    0.4420 C.1     1  UNL1       -0.0046
      4  C3         5.7530    0.4830    0.8540 C.1     1  UNL1       -0.0729
      5  C4         4.3930    0.4900    1.3590 C.3     1  UNL1        0.0743
      6  N2         3.4720   -0.0840    0.3610 N.am    1  UNL1       -0.3004
      7  C5         2.1180   -0.1680    0.6970 C.2     1  UNL1        0.2476
      8  O1         1.7570    0.2580    1.8560 O.2     1  UNL1       -0.2701
      9  C6         1.0520   -0.7020   -0.1560 C.ar    1  UNL1        0.0721
     10  C7        -0.1970   -0.9670    0.4070 C.ar    1  UNL1       -0.0433
     11  C8        -1.2660   -1.4790   -0.2610 C.ar    1  UNL1       -0.0406
     12  C9        -2.5540   -1.7190    0.4030 C.3     1  UNL1        0.0171
     13  C10       -3.6630   -0.8710    0.0040 C.ar    1  UNL1        0.0736
     14  N3        -4.5090   -1.3800   -0.9430 N.ar    1  UNL1       -0.1750
     15  N4        -5.5320   -0.7210   -1.4340 N.ar    1  UNL1       -0.2425
     16  C11       -5.8080    0.5260   -1.0170 C.ar    1  UNL1        0.2725
     17  O2        -6.7800    1.1730   -1.4740 O.2     1  UNL1       -0.2658
     18  C12       -4.9800    1.0740   -0.0630 C.ar    1  UNL1        0.0496
     19  C13       -5.2190    2.3380    0.4090 C.ar    1  UNL1       -0.0487
     20  C14       -4.4340    2.9330    1.3710 C.ar    1  UNL1       -0.0610
     21  C15       -3.3590    2.2120    1.8740 C.ar    1  UNL1       -0.0611
     22  C16       -3.0820    0.9380    1.4280 C.ar    1  UNL1       -0.0521
     23  C17       -3.8900    0.3810    0.4650 C.ar    1  UNL1        0.0106
     24  C18       -1.0840   -1.7580   -1.6220 C.ar    1  UNL1       -0.0555
     25  C19        0.1270   -1.5160   -2.2250 C.ar    1  UNL1       -0.0254
     26  C20        1.1900   -0.9880   -1.4860 C.ar    1  UNL1        0.1355
     27  F1         2.3460   -0.7610   -2.1240 F       1  UNL1       -0.2047
     28 H           9.7716   -0.5612   -0.7629 H       1  UNL1        0.4435
     29 H           8.3814   -1.4533   -0.3394 H       1  UNL1        0.4435
     30 H           8.7528    1.4048   -0.1532 H       1  UNL1        0.1476
     31 H           4.1005    1.4973    1.5706 H       1  UNL1        0.0599
     32 H           4.3505   -0.0999    2.2507 H       1  UNL1        0.0599
     33 H           3.7998   -0.3976   -0.5128 H       1  UNL1        0.1499
     34 H          -0.3197   -0.7579    1.4101 H       1  UNL1        0.0629
     35 H          -2.4062   -1.5857    1.4543 H       1  UNL1        0.0377
     36 H          -2.8391   -2.7087    0.1128 H       1  UNL1        0.0377
     37 H          -6.1031   -1.1447   -2.1149 H       1  UNL1        0.1921
     38 H          -6.0200    2.8655    0.0279 H       1  UNL1        0.0625
     39 H          -4.6385    3.8866    1.7083 H       1  UNL1        0.0618
     40 H          -2.7564    2.6383    2.5952 H       1  UNL1        0.0618
     41 H          -2.2815    0.4107    1.8104 H       1  UNL1        0.0624
     42 H          -1.8637   -2.1474   -2.1747 H       1  UNL1        0.0621
     43 H           0.2523   -1.7249   -3.2278 H       1  UNL1        0.0646
@<TRIPOS>UNITY_ATOM_ATTR
1 1
charge 1
@<TRIPOS>BOND
     1     1     2    2
     2     2     3    1
     3     3     4    3
     4     4     5    1
     5     5     6    1
     6     6     7   am
     7     7     8    2
     8     7     9    1
     9     9    10   ar
    10     9    26   ar
    11    10    11   ar
    12    11    12    1
    13    11    24   ar
    14    12    13    1
    15    13    14   ar
    16    13    23   ar
    17    14    15   ar
    18    15    16   ar
    19    16    17    2
    20    16    18   ar
    21    18    19   ar
    22    18    23   ar
    23    19    20   ar
    24    20    21   ar
    25    21    22   ar
    26    22    23   ar
    27    24    25   ar
    28    25    26   ar
    29    26    27    1
    30     1    28    1
    31     1    29    1
    32     2    30    1
    33     5    31    1
    34     5    32    1
    35     6    33    1
    36    10    34    1
    37    12    35    1
    38    12    36    1
    39    15    37    1
    40    19    38    1
    41    20    39    1
    42    21    40    1
    43    22    41    1
    44    24    42    1
    45    25    43    1
@<TRIPOS>MOLECULE
../data/bude_mols_rdkit_confs_charged/molecule_79.pdb
 43 45 0 0 0
SMALL
GASTEIGER

@<TRIPOS>ATOM
      1  N1         7.3590    2.0520    1.9480 N.2     1  UNL1       -0.2533
      2  C1         6.5980    1.5390    0.7840 C.2     1  UNL1        0.2141
      3  C2         5.9070    0.4610    1.3150 C.1     1  UNL1       -0.0046
      4  C3         5.2370   -0.5520    1.8050 C.1     1  UNL1       -0.0729
      5  C4         4.5210   -1.6590    2.3310 C.3     1  UNL1        0.0743
      6  N2         3.5130   -1.9400    1.2540 N.am    1  UNL1       -0.3004
      7  C5         2.6220   -0.7620    1.0680 C.2     1  UNL1        0.2476
      8  O1         2.8690    0.1530    1.8880 O.2     1  UNL1       -0.2701
      9  C6         1.6340   -0.7810    0.0420 C.ar    1  UNL1        0.0721
     10  C7         0.5450    0.0840    0.2680 C.ar    1  UNL1       -0.0433
     11  C8        -0.4550    0.2810   -0.7200 C.ar    1  UNL1       -0.0406
     12  C9        -1.4960    1.2960   -0.4070 C.3     1  UNL1        0.0171
     13  C10       -2.7620    0.8310    0.0400 C.ar    1  UNL1        0.0736
     14  N3        -2.9550    0.7300    1.4480 N.ar    1  UNL1       -0.1750
     15  N4        -4.1560    0.2920    1.9120 N.ar    1  UNL1       -0.2425
     16  C11       -5.1290   -0.0410    1.2320 C.ar    1  UNL1        0.2725
     17  O2        -6.3020   -0.4760    1.5160 O.2     1  UNL1       -0.2658
     18  C12       -5.0520    0.0190   -0.2470 C.ar    1  UNL1        0.0496
     19  C13       -6.1000   -0.3000   -1.0860 C.ar    1  UNL1       -0.0487
     20  C14       -5.8970   -0.1260   -2.4130 C.ar    1  UNL1       -0.0610
     21  C15       -4.7490    0.3220   -2.9080 C.ar    1  UNL1       -0.0611
     22  C16       -3.6520    0.6460   -2.0640 C.ar    1  UNL1       -0.0521
     23  C17       -3.8440    0.4680   -0.6750 C.ar    1  UNL1        0.0106
     24  C18       -0.3250   -0.3930   -1.8880 C.ar    1  UNL1       -0.0555
     25  C19        0.7770   -1.3010   -2.1820 C.ar    1  UNL1       -0.0254
     26  C20        1.6810   -1.3810   -1.0830 C.ar    1  UNL1        0.1355
     27  F1         2.7800   -2.2340   -1.3360 F       1  UNL1       -0.2047
     28 H           7.9471    2.8348    1.8453 H       1  UNL1        0.4435
     29 H           7.2763    1.6099    2.8238 H       1  UNL1        0.4435
     30 H           6.5856    1.8966   -0.1840 H       1  UNL1        0.1476
     31 H           4.0406   -1.4053    3.2528 H       1  UNL1        0.0599
     32 H           5.1439   -2.4984    2.5599 H       1  UNL1        0.0599
     33 H           3.4505   -2.7805    0.7452 H       1  UNL1        0.1499
     34 H           0.4731    0.5834    1.1682 H       1  UNL1        0.0629
     35 H          -1.6618    1.8676   -1.2962 H       1  UNL1        0.0377
     36 H          -1.1000    1.8402    0.4248 H       1  UNL1        0.0377
     37 H          -4.2588    0.2351    2.8895 H       1  UNL1        0.1921
     38 H          -6.9969   -0.6547   -0.7189 H       1  UNL1        0.0625
     39 H          -6.6644   -0.3503   -3.0656 H       1  UNL1        0.0618
     40 H          -4.6510    0.4376   -3.9288 H       1  UNL1        0.0618
     41 H          -2.7591    0.9942   -2.4467 H       1  UNL1        0.0624
     42 H          -1.0480   -0.2557   -2.6115 H       1  UNL1        0.0621
     43 H           0.8879   -1.8175   -3.0685 H       1  UNL1        0.0646
@<TRIPOS>UNITY_ATOM_ATTR
1 1
charge 1
@<TRIPOS>BOND
     1     1     2    2
     2     2     3    1
     3     3     4    3
     4     4     5    1
     5     5     6    1
     6     6     7   am
     7     7     8    2
     8     7     9    1
     9     9    10   ar
    10     9    26   ar
    11    10    11   ar
    12    11    12    1
    13    11    24   ar
    14    12    13    1
    15    13    14   ar
    16    13    23   ar
    17    14    15   ar
    18    15    16   ar
    19    16    17    2
    20    16    18   ar
    21    18    19   ar
    22    18    23   ar
    23    19    20   ar
    24    20    21   ar
    25    21    22   ar
    26    22    23   ar
    27    24    25   ar
    28    25    26   ar
    29    26    27    1
    30     1    28    1
    31     1    29    1
    32     2    30    1
    33     5    31    1
    34     5    32    1
    35     6    33    1
    36    10    34    1
    37    12    35    1
    38    12    36    1
    39    15    37    1
    40    19    38    1
    41    20    39    1
    42    21    40    1
    43    22    41    1
    44    24    42    1
    45    25    43    1
@<TRIPOS>MOLECULE
../data/bude_mols_rdkit_confs_charged/molecule_79.pdb
 43 45 0 0 0
SMALL
GASTEIGER

@<TRIPOS>ATOM
      1  N1         6.5940    1.9150   -0.2830 N.2     1  UNL1       -0.2533
      2  C1         7.4030    0.9210    0.1160 C.2     1  UNL1        0.2141
      3  C2         6.6140   -0.1910    0.0100 C.1     1  UNL1       -0.0046
      4  C3         5.6790   -1.5210   -0.1370 C.1     1  UNL1       -0.0729
      5  C4         5.1080   -2.3310   -0.2280 C.3     1  UNL1        0.0743
      6  N2         3.4910   -2.2050   -0.2720 N.am    1  UNL1       -0.3004
      7  C5         3.1090   -1.2060    0.6780 C.2     1  UNL1        0.2476
      8  O1         3.9730   -0.8300    1.5230 O.2     1  UNL1       -0.2701
      9  C6         1.7530   -0.5220    0.6380 C.ar    1  UNL1        0.0721
     10  C7         0.6240   -0.8690    1.1510 C.ar    1  UNL1       -0.0433
     11  C8        -0.4660    0.0670    1.0630 C.ar    1  UNL1       -0.0406
     12  C9        -1.8210   -0.3260    1.6680 C.3     1  UNL1        0.0171
     13  C10       -2.9100   -0.7390    0.8520 C.ar    1  UNL1        0.0736
     14  N3        -3.0550   -1.9690    0.3270 N.ar    1  UNL1       -0.1750
     15  N4        -4.0530   -2.3800   -0.4140 N.ar    1  UNL1       -0.2425
     16  C11       -5.1240   -1.6600   -0.7990 C.ar    1  UNL1        0.2725
     17  O2        -5.9920   -2.1330   -1.3920 O.2     1  UNL1       -0.2658
     18  C12       -5.0990   -0.3470   -0.3400 C.ar    1  UNL1        0.0496
     19  C13       -6.0670    0.5360   -0.6730 C.ar    1  UNL1       -0.0487
     20  C14       -6.1490    1.8290   -0.2760 C.ar    1  UNL1       -0.0610
     21  C15       -5.0980    2.2820    0.5530 C.ar    1  UNL1       -0.0611
     22  C16       -4.1000    1.3450    0.8350 C.ar    1  UNL1       -0.0521
     23  C17       -3.9940    0.0620    0.4770 C.ar    1  UNL1        0.0106
     24  C18       -0.4040    1.2740    0.5120 C.ar    1  UNL1       -0.0555
     25  C19        0.8750    1.6260   -0.0200 C.ar    1  UNL1       -0.0254
     26  C20        1.8910    0.7710    0.0380 C.ar    1  UNL1        0.1355
     27  F1         3.1460    1.0920   -0.4810 F       1  UNL1       -0.2047
     28 H           6.9251    2.8420   -0.3011 H       1  UNL1        0.4435
     29 H           5.6695    1.7171   -0.5575 H       1  UNL1        0.4435
     30 H           8.3849    0.9814    0.4279 H       1  UNL1        0.1476
     31 H           5.3425   -2.9648    0.6016 H       1  UNL1        0.0599
     32 H           5.3464   -2.6812   -1.2106 H       1  UNL1        0.0599
     33 H           2.8829   -2.7223   -0.8481 H       1  UNL1        0.1499
     34 H           0.5049   -1.7860    1.6092 H       1  UNL1        0.0629
     35 H          -2.1631    0.5250    2.2191 H       1  UNL1        0.0377
     36 H          -1.5821   -1.2222    2.2015 H       1  UNL1        0.0377
     37 H          -4.0167   -3.3142   -0.7224 H       1  UNL1        0.1921
     38 H          -6.8181    0.1911   -1.2909 H       1  UNL1        0.0625
     39 H          -6.9282    2.4429   -0.5605 H       1  UNL1        0.0618
     40 H          -5.0692    3.2436    0.9265 H       1  UNL1        0.0618
     41 H          -3.3212    1.7005    1.4113 H       1  UNL1        0.0624
     42 H          -1.2167    1.9087    0.4712 H       1  UNL1        0.0621
     43 H           1.0109    2.5527   -0.4532 H       1  UNL1        0.0646
@<TRIPOS>UNITY_ATOM_ATTR
1 1
charge 1
@<TRIPOS>BOND
     1     1     2    2
     2     2     3    1
     3     3     4    3
     4     4     5    1
     5     5     6    1
     6     6     7   am
     7     7     8    2
     8     7     9    1
     9     9    10   ar
    10     9    26   ar
    11    10    11   ar
    12    11    12    1
    13    11    24   ar
    14    12    13    1
    15    13    14   ar
    16    13    23   ar
    17    14    15   ar
    18    15    16   ar
    19    16    17    2
    20    16    18   ar
    21    18    19   ar
    22    18    23   ar
    23    19    20   ar
    24    20    21   ar
    25    21    22   ar
    26    22    23   ar
    27    24    25   ar
    28    25    26   ar
    29    26    27    1
    30     1    28    1
    31     1    29    1
    32     2    30    1
    33     5    31    1
    34     5    32    1
    35     6    33    1
    36    10    34    1
    37    12    35    1
    38    12    36    1
    39    15    37    1
    40    19    38    1
    41    20    39    1
    42    21    40    1
    43    22    41    1
    44    24    42    1
    45    25    43    1
@<TRIPOS>MOLECULE
../data/bude_mols_rdkit_confs_charged/molecule_79.pdb
 43 45 0 0 0
SMALL
GASTEIGER

@<TRIPOS>ATOM
      1  N1         6.6440    1.7610    1.5770 N.2     1  UNL1       -0.2533
      2  C1         6.8950    1.6130    0.3360 C.2     1  UNL1        0.2141
      3  C2         5.8880    1.5090   -0.6350 C.1     1  UNL1       -0.0046
      4  C3         5.0040    1.4360   -1.4710 C.1     1  UNL1       -0.0729
      5  C4         3.9560    1.3390   -2.4930 C.3     1  UNL1        0.0743
      6  N2         3.0520    0.2460   -2.1940 N.am    1  UNL1       -0.3004
      7  C5         2.2860    0.1960   -1.0070 C.2     1  UNL1        0.2476
      8  O1         2.4590    1.2040   -0.2310 O.2     1  UNL1       -0.2701
      9  C6         1.3630   -0.8490   -0.6130 C.ar    1  UNL1        0.0721
     10  C7         0.4400   -0.5670    0.4170 C.ar    1  UNL1       -0.0433
     11  C8        -0.4830   -1.4560    0.8500 C.ar    1  UNL1       -0.0406
     12  C9        -1.4990   -1.2430    1.9040 C.3     1  UNL1        0.0171
     13  C10       -2.8710   -1.0670    1.3880 C.ar    1  UNL1        0.0736
     14  N3        -3.6710   -2.1750    1.4050 N.ar    1  UNL1       -0.1750
     15  N4        -4.9110   -2.1210    0.9280 N.ar    1  UNL1       -0.2425
     16  C11       -5.4480   -1.0060    0.4120 C.ar    1  UNL1        0.2725
     17  O2        -6.6370   -0.9890   -0.0370 O.2     1  UNL1       -0.2658
     18  C12       -4.6930    0.1300    0.3720 C.ar    1  UNL1        0.0496
     19  C13       -5.2360    1.2750   -0.1470 C.ar    1  UNL1       -0.0487
     20  C14       -4.4860    2.4300   -0.1850 C.ar    1  UNL1       -0.0610
     21  C15       -3.2020    2.3800    0.3090 C.ar    1  UNL1       -0.0611
     22  C16       -2.6570    1.2270    0.8300 C.ar    1  UNL1       -0.0521
     23  C17       -3.4060    0.0760    0.8670 C.ar    1  UNL1        0.0106
     24  C18       -0.5050   -2.7080    0.2340 C.ar    1  UNL1       -0.0555
     25  C19        0.3800   -3.0200   -0.7740 C.ar    1  UNL1       -0.0254
     26  C20        1.3250   -2.0740   -1.1970 C.ar    1  UNL1        0.1355
     27  F1         2.1980   -2.4120   -2.1870 F       1  UNL1       -0.2047
     28 H           7.3829    1.8296    2.2239 H       1  UNL1        0.4435
     29 H           5.7112    1.8067    1.8885 H       1  UNL1        0.4435
     30 H           7.8805    1.5678    0.0329 H       1  UNL1        0.1476
     31 H           4.4097    1.1692   -3.4470 H       1  UNL1        0.0599
     32 H           3.4001    2.2532   -2.5052 H       1  UNL1        0.0599
     33 H           2.9683   -0.4899   -2.8426 H       1  UNL1        0.1499
     34 H           0.4709    0.3637    0.8618 H       1  UNL1        0.0629
     35 H          -1.2322   -0.3664    2.4564 H       1  UNL1        0.0377
     36 H          -1.5066   -2.1250    2.5097 H       1  UNL1        0.0377
     37 H          -5.4603   -2.9376    0.9549 H       1  UNL1        0.1921
     38 H          -6.2028    1.2727   -0.5081 H       1  UNL1        0.0625
     39 H          -4.8743    3.3046   -0.5714 H       1  UNL1        0.0618
     40 H          -2.6272    3.2369    0.2883 H       1  UNL1        0.0618
     41 H          -1.6902    1.2279    1.1910 H       1  UNL1        0.0624
     42 H          -1.1957   -3.4116    0.5388 H       1  UNL1        0.0621
     43 H           0.3478   -3.9508   -1.2185 H       1  UNL1        0.0646
@<TRIPOS>UNITY_ATOM_ATTR
1 1
charge 1
@<TRIPOS>BOND
     1     1     2    2
     2     2     3    1
     3     3     4    3
     4     4     5    1
     5     5     6    1
     6     6     7   am
     7     7     8    2
     8     7     9    1
     9     9    10   ar
    10     9    26   ar
    11    10    11   ar
    12    11    12    1
    13    11    24   ar
    14    12    13    1
    15    13    14   ar
    16    13    23   ar
    17    14    15   ar
    18    15    16   ar
    19    16    17    2
    20    16    18   ar
    21    18    19   ar
    22    18    23   ar
    23    19    20   ar
    24    20    21   ar
    25    21    22   ar
    26    22    23   ar
    27    24    25   ar
    28    25    26   ar
    29    26    27    1
    30     1    28    1
    31     1    29    1
    32     2    30    1
    33     5    31    1
    34     5    32    1
    35     6    33    1
    36    10    34    1
    37    12    35    1
    38    12    36    1
    39    15    37    1
    40    19    38    1
    41    20    39    1
    42    21    40    1
    43    22    41    1
    44    24    42    1
    45    25    43    1
@<TRIPOS>MOLECULE
../data/bude_mols_rdkit_confs_charged/molecule_79.pdb
 43 45 0 0 0
SMALL
GASTEIGER

@<TRIPOS>ATOM
      1  N1         6.6550    0.9080    0.6100 N.2     1  UNL1       -0.2533
      2  C1         6.7610    0.2320   -0.4850 C.2     1  UNL1        0.2141
      3  C2         5.8720   -1.0850   -0.2390 C.1     1  UNL1       -0.0046
      4  C3         5.2200   -2.0440   -0.0440 C.1     1  UNL1       -0.0729
      5  C4         4.4300   -3.2260    0.1710 C.3     1  UNL1        0.0743
      6  N2         3.0220   -3.0460   -0.0140 N.am    1  UNL1       -0.3004
      7  C5         2.1560   -2.1720    0.6500 C.2     1  UNL1        0.2476
      8  O1         2.7480   -1.4120    1.5210 O.2     1  UNL1       -0.2701
      9  C6         0.7240   -2.0340    0.4860 C.ar    1  UNL1        0.0721
     10  C7         0.0700   -0.9520    1.0020 C.ar    1  UNL1       -0.0433
     11  C8        -1.3040   -0.7300    0.9260 C.ar    1  UNL1       -0.0406
     12  C9        -1.8390    0.5010    1.5340 C.3     1  UNL1        0.0171
     13  C10       -1.9920    1.6190    0.5990 C.ar    1  UNL1        0.0736
     14  N3        -0.9450    2.4440    0.3580 N.ar    1  UNL1       -0.1750
     15  N4        -1.0150    3.4060   -0.5620 N.ar    1  UNL1       -0.2425
     16  C11       -2.0790    3.6640   -1.3210 C.ar    1  UNL1        0.2725
     17  O2        -2.1330    4.5680   -2.1750 O.2     1  UNL1       -0.2658
     18  C12       -3.2060    2.8280   -1.0990 C.ar    1  UNL1        0.0496
     19  C13       -4.3240    3.0940   -1.8440 C.ar    1  UNL1       -0.0487
     20  C14       -5.4520    2.3240   -1.6330 C.ar    1  UNL1       -0.0610
     21  C15       -5.4020    1.3090   -0.6690 C.ar    1  UNL1       -0.0611
     22  C16       -4.2700    1.0540    0.0700 C.ar    1  UNL1       -0.0521
     23  C17       -3.1290    1.8240   -0.1380 C.ar    1  UNL1        0.0106
     24  C18       -2.0840   -1.6520    0.2940 C.ar    1  UNL1       -0.0555
     25  C19       -1.4400   -2.7750   -0.2480 C.ar    1  UNL1       -0.0254
     26  C20       -0.1010   -2.9620   -0.1610 C.ar    1  UNL1        0.1355
     27  F1         0.4660   -4.0680   -0.6970 F       1  UNL1       -0.2047
     28 H           7.1203    1.7706    0.7030 H       1  UNL1        0.4435
     29 H           6.1089    0.5608    1.3519 H       1  UNL1        0.4435
     30 H           7.2974    0.4816   -1.3306 H       1  UNL1        0.1476
     31 H           4.5945   -3.5589    1.1745 H       1  UNL1        0.0599
     32 H           4.7431   -3.9369   -0.5649 H       1  UNL1        0.0599
     33 H           2.6072   -3.6148   -0.7022 H       1  UNL1        0.1499
     34 H           0.6391   -0.2411    1.4875 H       1  UNL1        0.0629
     35 H          -1.1735    0.8057    2.3145 H       1  UNL1        0.0377
     36 H          -2.8194    0.2647    1.8916 H       1  UNL1        0.0377
     37 H          -0.2183    3.9698   -0.6906 H       1  UNL1        0.1921
     38 H          -4.3241    3.8508   -2.5456 H       1  UNL1        0.0625
     39 H          -6.3139    2.4934   -2.1748 H       1  UNL1        0.0618
     40 H          -6.2429    0.7329   -0.5076 H       1  UNL1        0.0618
     41 H          -4.2667    0.2982    0.7727 H       1  UNL1        0.0624
     42 H          -3.1058   -1.5294    0.2172 H       1  UNL1        0.0621
     43 H          -2.0092   -3.4868   -0.7322 H       1  UNL1        0.0646
@<TRIPOS>UNITY_ATOM_ATTR
1 1
charge 1
@<TRIPOS>BOND
     1     1     2    2
     2     2     3    1
     3     3     4    3
     4     4     5    1
     5     5     6    1
     6     6     7   am
     7     7     8    2
     8     7     9    1
     9     9    10   ar
    10     9    26   ar
    11    10    11   ar
    12    11    12    1
    13    11    24   ar
    14    12    13    1
    15    13    14   ar
    16    13    23   ar
    17    14    15   ar
    18    15    16   ar
    19    16    17    2
    20    16    18   ar
    21    18    19   ar
    22    18    23   ar
    23    19    20   ar
    24    20    21   ar
    25    21    22   ar
    26    22    23   ar
    27    24    25   ar
    28    25    26   ar
    29    26    27    1
    30     1    28    1
    31     1    29    1
    32     2    30    1
    33     5    31    1
    34     5    32    1
    35     6    33    1
    36    10    34    1
    37    12    35    1
    38    12    36    1
    39    15    37    1
    40    19    38    1
    41    20    39    1
    42    21    40    1
    43    22    41    1
    44    24    42    1
    45    25    43    1
