@<TRIPOS>MOLECULE
../data/bude_mols_rdkit_confs_charged/molecule_47.pdb
 35 37 0 0 0
SMALL
GASTEIGER

@<TRIPOS>ATOM
      1  O1        -6.1360    0.3200   -0.9470 O.3     1  UNL1       -0.4357
      2  C1        -5.5110    0.0990    0.2750 C.2     1  UNL1        0.5213
      3  O2        -6.2300    0.1130    1.2820 O.2     1  UNL1       -0.2382
      4  C2        -4.0730   -0.1370    0.3750 C.ar    1  UNL1        0.1224
      5  C3        -3.5140   -0.3490    1.6120 C.ar    1  UNL1       -0.0419
      6  C4        -2.1620   -0.5740    1.7280 C.ar    1  UNL1       -0.0590
      7  C5        -1.3690   -0.5850    0.5720 C.ar    1  UNL1       -0.0404
      8  C6        -1.9040   -0.3760   -0.6680 C.ar    1  UNL1        0.0345
      9  N1        -1.1340   -0.3610   -1.8470 N.pl3   1  UNL1       -0.2836
     10  C7         0.2710   -0.2440   -1.9450 C.ar    1  UNL1        0.2200
     11  N2         0.8220   -0.2710   -3.2040 N.ar    1  UNL1       -0.2226
     12  C8         2.1280   -0.1530   -3.4200 C.ar    1  UNL1        0.0332
     13  C9         2.9630    0.0050   -2.3070 C.ar    1  UNL1       -0.0174
     14  C10        2.4500    0.0370   -1.0300 C.ar    1  UNL1        0.0775
     15  C11        3.3160    0.2130    0.1180 C.ar    1  UNL1        0.0186
     16  C12        4.6820    0.3170    0.0820 C.ar    1  UNL1       -0.0497
     17  C13        5.4580    0.4940    1.2370 C.ar    1  UNL1       -0.0430
     18  C14        4.8510    0.5690    2.4680 C.ar    1  UNL1        0.0276
     19  N3         3.5130    0.4660    2.4920 N.ar    1  UNL1       -0.2626
     20  C15        2.7490    0.2960    1.3940 C.ar    1  UNL1        0.0367
     21  N4         1.1190   -0.0910   -0.9270 N.ar    1  UNL1       -0.2142
     22  C16       -3.2750   -0.1520   -0.7480 C.ar    1  UNL1       -0.0208
     23 H          -5.6329    0.3188   -1.7375 H       1  UNL1        0.3009
     24 H          -5.8541   -0.0310    2.1281 H       1  UNL1        0.6876
     25 H          -4.1091   -0.3394    2.4551 H       1  UNL1        0.0628
     26 H          -1.7366   -0.7328    2.6547 H       1  UNL1        0.0618
     27 H          -0.3549   -0.7553    0.6597 H       1  UNL1        0.0636
     28 H          -1.6280   -0.4407   -2.6949 H       1  UNL1        0.1550
     29 H           2.5142   -0.1770   -4.3767 H       1  UNL1        0.0831
     30 H           3.9812    0.0991   -2.4466 H       1  UNL1        0.0654
     31 H           5.1589    0.2629   -0.8316 H       1  UNL1        0.0625
     32 H           6.4847    0.5679    1.1626 H       1  UNL1        0.0633
     33 H           5.3984    0.6984    3.3332 H       1  UNL1        0.0829
     34 H           1.7246    0.2257    1.4972 H       1  UNL1        0.0836
     35 H          -3.7052    0.0070   -1.6725 H       1  UNL1        0.0646
@<TRIPOS>UNITY_ATOM_ATTR
3 1
charge 1
@<TRIPOS>BOND
     1     1     2    1
     2     2     3    2
     3     2     4    1
     4     4     5   ar
     5     4    22   ar
     6     5     6   ar
     7     6     7   ar
     8     7     8   ar
     9     8     9    1
    10     8    22   ar
    11     9    10    1
    12    10    11   ar
    13    10    21   ar
    14    11    12   ar
    15    12    13   ar
    16    13    14   ar
    17    14    15    1
    18    14    21   ar
    19    15    16   ar
    20    15    20   ar
    21    16    17   ar
    22    17    18   ar
    23    18    19   ar
    24    19    20   ar
    25     1    23    1
    26     3    24    1
    27     5    25    1
    28     6    26    1
    29     7    27    1
    30     9    28    1
    31    12    29    1
    32    13    30    1
    33    16    31    1
    34    17    32    1
    35    18    33    1
    36    20    34    1
    37    22    35    1
@<TRIPOS>MOLECULE
../data/bude_mols_rdkit_confs_charged/molecule_47.pdb
 35 37 0 0 0
SMALL
GASTEIGER

@<TRIPOS>ATOM
      1  O1         6.7280   -0.7620    1.6930 O.3     1  UNL1       -0.4357
      2  C1         5.3410   -0.9240    1.8550 C.2     1  UNL1        0.5213
      3  O2         4.9510   -1.4650    2.9070 O.2     1  UNL1       -0.2382
      4  C2         4.4150   -0.4750    0.8300 C.ar    1  UNL1        0.1224
      5  C3         4.8780    0.1290   -0.3420 C.ar    1  UNL1       -0.0419
      6  C4         3.9970    0.5500   -1.3060 C.ar    1  UNL1       -0.0590
      7  C5         2.6230    0.3970   -1.1610 C.ar    1  UNL1       -0.0404
      8  C6         2.1300   -0.1930   -0.0210 C.ar    1  UNL1        0.0345
      9  N1         0.7680   -0.3920    0.2620 N.pl3   1  UNL1       -0.2836
     10  C7        -0.3220    0.2200   -0.3700 C.ar    1  UNL1        0.2200
     11  N2        -0.1180    1.1070   -1.3510 N.ar    1  UNL1       -0.2226
     12  C8        -1.0900    1.7240   -1.9930 C.ar    1  UNL1        0.0332
     13  C9        -2.4020    1.4190   -1.6130 C.ar    1  UNL1       -0.0174
     14  C10       -2.6360    0.5110   -0.6090 C.ar    1  UNL1        0.0775
     15  C11       -4.0140    0.2040   -0.2240 C.ar    1  UNL1        0.0186
     16  C12       -4.2230   -0.7250    0.8020 C.ar    1  UNL1       -0.0497
     17  C13       -5.4990   -1.0520    1.2050 C.ar    1  UNL1       -0.0430
     18  C14       -6.5900   -0.4670    0.6020 C.ar    1  UNL1        0.0276
     19  N3        -6.3780    0.4200   -0.3780 N.ar    1  UNL1       -0.2626
     20  C15       -5.1180    0.7590   -0.7940 C.ar    1  UNL1        0.0367
     21  N4        -1.6040   -0.0890    0.0130 N.ar    1  UNL1       -0.2142
     22  C16        3.0730   -0.6140    0.9500 C.ar    1  UNL1       -0.0208
     23 H           7.0652   -0.3599    0.9168 H       1  UNL1        0.3009
     24 H           4.0349   -1.5928    3.0563 H       1  UNL1        0.6876
     25 H           5.8918    0.2596   -0.4838 H       1  UNL1        0.0628
     26 H           4.3647    0.9926   -2.1627 H       1  UNL1        0.0618
     27 H           1.9805    0.7224   -1.9002 H       1  UNL1        0.0636
     28 H           0.5573   -1.0300    0.9816 H       1  UNL1        0.1550
     29 H          -0.8919    2.4033   -2.7442 H       1  UNL1        0.0831
     30 H          -3.1954    1.8772   -2.0880 H       1  UNL1        0.0654
     31 H          -3.4127   -1.1695    1.2613 H       1  UNL1        0.0625
     32 H          -5.6380   -1.7388    1.9626 H       1  UNL1        0.0633
     33 H          -7.5489   -0.7068    0.8987 H       1  UNL1        0.0829
     34 H          -5.0037    1.4480   -1.5537 H       1  UNL1        0.0836
     35 H           2.7116   -1.0577    1.8088 H       1  UNL1        0.0646
@<TRIPOS>UNITY_ATOM_ATTR
3 1
charge 1
@<TRIPOS>BOND
     1     1     2    1
     2     2     3    2
     3     2     4    1
     4     4     5   ar
     5     4    22   ar
     6     5     6   ar
     7     6     7   ar
     8     7     8   ar
     9     8     9    1
    10     8    22   ar
    11     9    10    1
    12    10    11   ar
    13    10    21   ar
    14    11    12   ar
    15    12    13   ar
    16    13    14   ar
    17    14    15    1
    18    14    21   ar
    19    15    16   ar
    20    15    20   ar
    21    16    17   ar
    22    17    18   ar
    23    18    19   ar
    24    19    20   ar
    25     1    23    1
    26     3    24    1
    27     5    25    1
    28     6    26    1
    29     7    27    1
    30     9    28    1
    31    12    29    1
    32    13    30    1
    33    16    31    1
    34    17    32    1
    35    18    33    1
    36    20    34    1
    37    22    35    1
@<TRIPOS>MOLECULE
../data/bude_mols_rdkit_confs_charged/molecule_47.pdb
 35 37 0 0 0
SMALL
GASTEIGER

@<TRIPOS>ATOM
      1  O1         6.1560    0.8060   -0.0320 O.3     1  UNL1       -0.4357
      2  C1         5.4400    0.1870    0.9790 C.2     1  UNL1        0.5213
      3  O2         6.0600   -0.1210    2.0250 O.2     1  UNL1       -0.2382
      4  C2         4.0160   -0.1070    0.8600 C.ar    1  UNL1        0.1224
      5  C3         3.3560   -0.7250    1.9000 C.ar    1  UNL1       -0.0419
      6  C4         2.0140   -0.9990    1.7790 C.ar    1  UNL1       -0.0590
      7  C5         1.3060   -0.6600    0.6150 C.ar    1  UNL1       -0.0404
      8  C6         1.9410   -0.0450   -0.4330 C.ar    1  UNL1        0.0345
      9  N1         1.2660    0.3310   -1.6140 N.pl3   1  UNL1       -0.2836
     10  C7        -0.1150    0.4030   -1.8400 C.ar    1  UNL1        0.2200
     11  N2        -0.5020    0.7910   -3.1000 N.ar    1  UNL1       -0.2226
     12  C8        -1.7890    0.9130   -3.4470 C.ar    1  UNL1        0.0332
     13  C9        -2.7290    0.6280   -2.4770 C.ar    1  UNL1       -0.0174
     14  C10       -2.3910    0.2370   -1.2050 C.ar    1  UNL1        0.0775
     15  C11       -3.3940   -0.0570   -0.1890 C.ar    1  UNL1        0.0186
     16  C12       -4.7500    0.0160   -0.4080 C.ar    1  UNL1       -0.0497
     17  C13       -5.6630   -0.2770    0.6150 C.ar    1  UNL1       -0.0430
     18  C14       -5.2370   -0.6470    1.8710 C.ar    1  UNL1        0.0276
     19  N3        -3.9080   -0.7120    2.0640 N.ar    1  UNL1       -0.2626
     20  C15       -3.0100   -0.4330    1.0910 C.ar    1  UNL1        0.0367
     21  N4        -1.0690    0.1430   -0.9490 N.ar    1  UNL1       -0.2142
     22  C16        3.2880    0.2090   -0.2640 C.ar    1  UNL1       -0.0208
     23 H           5.7266    1.0508   -0.8280 H       1  UNL1        0.3009
     24 H           5.6088   -0.5412    2.7306 H       1  UNL1        0.6876
     25 H           3.8641   -0.9797    2.7614 H       1  UNL1        0.0628
     26 H           1.5187   -1.4618    2.5572 H       1  UNL1        0.0618
     27 H           0.2990   -0.8756    0.5476 H       1  UNL1        0.0636
     28 H           1.8389    0.5739   -2.3769 H       1  UNL1        0.1550
     29 H          -2.0660    1.2068   -4.3967 H       1  UNL1        0.0831
     30 H          -3.7288    0.7125   -2.7183 H       1  UNL1        0.0654
     31 H          -5.1005    0.2905   -1.3390 H       1  UNL1        0.0625
     32 H          -6.6750   -0.2141    0.4227 H       1  UNL1        0.0633
     33 H          -5.9050   -0.8638    2.6271 H       1  UNL1        0.0829
     34 H          -2.0035   -0.5022    1.3083 H       1  UNL1        0.0836
     35 H           3.7867    0.6713   -1.0403 H       1  UNL1        0.0646
@<TRIPOS>UNITY_ATOM_ATTR
3 1
charge 1
@<TRIPOS>BOND
     1     1     2    1
     2     2     3    2
     3     2     4    1
     4     4     5   ar
     5     4    22   ar
     6     5     6   ar
     7     6     7   ar
     8     7     8   ar
     9     8     9    1
    10     8    22   ar
    11     9    10    1
    12    10    11   ar
    13    10    21   ar
    14    11    12   ar
    15    12    13   ar
    16    13    14   ar
    17    14    15    1
    18    14    21   ar
    19    15    16   ar
    20    15    20   ar
    21    16    17   ar
    22    17    18   ar
    23    18    19   ar
    24    19    20   ar
    25     1    23    1
    26     3    24    1
    27     5    25    1
    28     6    26    1
    29     7    27    1
    30     9    28    1
    31    12    29    1
    32    13    30    1
    33    16    31    1
    34    17    32    1
    35    18    33    1
    36    20    34    1
    37    22    35    1
@<TRIPOS>MOLECULE
../data/bude_mols_rdkit_confs_charged/molecule_47.pdb
 35 37 0 0 0
SMALL
GASTEIGER

@<TRIPOS>ATOM
      1  O1         6.9820   -0.5030    0.4600 O.3     1  UNL1       -0.4357
      2  C1         5.7110   -0.6900    1.0120 C.2     1  UNL1        0.5213
      3  O2         5.6790   -1.2470    2.1230 O.2     1  UNL1       -0.2382
      4  C2         4.5580   -0.2260    0.2580 C.ar    1  UNL1        0.1224
      5  C3         4.7620    0.3810   -0.9780 C.ar    1  UNL1       -0.0419
      6  C4         3.7050    0.8350   -1.7280 C.ar    1  UNL1       -0.0590
      7  C5         2.3930    0.6860   -1.2430 C.ar    1  UNL1       -0.0404
      8  C6         2.1520    0.0960   -0.0370 C.ar    1  UNL1        0.0345
      9  N1         0.8770   -0.0780    0.4720 N.pl3   1  UNL1       -0.2836
     10  C7        -0.3340    0.1880   -0.2010 C.ar    1  UNL1        0.2200
     11  N2        -0.4690    0.6480   -1.4430 N.ar    1  UNL1       -0.2226
     12  C8        -1.5860    0.9050   -2.0960 C.ar    1  UNL1        0.0332
     13  C9        -2.7870    0.6720   -1.4170 C.ar    1  UNL1       -0.0174
     14  C10       -2.7180    0.1970   -0.1310 C.ar    1  UNL1        0.0775
     15  C11       -3.9570   -0.0550    0.6000 C.ar    1  UNL1        0.0186
     16  C12       -5.1830    0.1660    0.0500 C.ar    1  UNL1       -0.0497
     17  C13       -6.3080   -0.1110    0.8450 C.ar    1  UNL1       -0.0430
     18  C14       -6.1880   -0.5830    2.1200 C.ar    1  UNL1        0.0276
     19  N3        -4.9670   -0.7910    2.6340 N.ar    1  UNL1       -0.2626
     20  C15       -3.8760   -0.5350    1.8980 C.ar    1  UNL1        0.0367
     21  N4        -1.5240   -0.0340    0.4480 N.ar    1  UNL1       -0.2142
     22  C16        3.2650   -0.3540    0.6960 C.ar    1  UNL1       -0.0208
     23 H           7.0736   -0.0889   -0.3755 H       1  UNL1        0.3009
     24 H           4.8574   -1.4013    2.5462 H       1  UNL1        0.6876
     25 H           5.7234    0.4916   -1.3366 H       1  UNL1        0.0628
     26 H           3.8723    1.2831   -2.6425 H       1  UNL1        0.0618
     27 H           1.6005    1.0284   -1.8084 H       1  UNL1        0.0636
     28 H           0.8084   -0.4204    1.3925 H       1  UNL1        0.1550
     29 H          -1.5745    1.2619   -3.0643 H       1  UNL1        0.0831
     30 H          -3.6970    0.8518   -1.8693 H       1  UNL1        0.0654
     31 H          -5.2820    0.5230   -0.9132 H       1  UNL1        0.0625
     32 H          -7.2501    0.0467    0.4544 H       1  UNL1        0.0633
     33 H          -7.0300   -0.7782    2.6839 H       1  UNL1        0.0829
     34 H          -2.9451   -0.7008    2.3114 H       1  UNL1        0.0836
     35 H           3.1000   -0.8035    1.6102 H       1  UNL1        0.0646
@<TRIPOS>UNITY_ATOM_ATTR
3 1
charge 1
@<TRIPOS>BOND
     1     1     2    1
     2     2     3    2
     3     2     4    1
     4     4     5   ar
     5     4    22   ar
     6     5     6   ar
     7     6     7   ar
     8     7     8   ar
     9     8     9    1
    10     8    22   ar
    11     9    10    1
    12    10    11   ar
    13    10    21   ar
    14    11    12   ar
    15    12    13   ar
    16    13    14   ar
    17    14    15    1
    18    14    21   ar
    19    15    16   ar
    20    15    20   ar
    21    16    17   ar
    22    17    18   ar
    23    18    19   ar
    24    19    20   ar
    25     1    23    1
    26     3    24    1
    27     5    25    1
    28     6    26    1
    29     7    27    1
    30     9    28    1
    31    12    29    1
    32    13    30    1
    33    16    31    1
    34    17    32    1
    35    18    33    1
    36    20    34    1
    37    22    35    1
@<TRIPOS>MOLECULE
../data/bude_mols_rdkit_confs_charged/molecule_47.pdb
 35 37 0 0 0
SMALL
GASTEIGER

@<TRIPOS>ATOM
      1  O1        -6.3220   -1.0670   -1.1220 O.3     1  UNL1       -0.4357
      2  C1        -4.9600   -1.1500   -0.9100 C.2     1  UNL1        0.5213
      3  O2        -4.4110   -2.2600   -0.9420 O.2     1  UNL1       -0.2382
      4  C2        -4.2080    0.0630   -0.6560 C.ar    1  UNL1        0.1224
      5  C3        -4.8760    1.2730   -0.6320 C.ar    1  UNL1       -0.0419
      6  C4        -4.1620    2.4210   -0.3900 C.ar    1  UNL1       -0.0590
      7  C5        -2.8080    2.3650   -0.1770 C.ar    1  UNL1       -0.0404
      8  C6        -2.0830    1.1660   -0.1900 C.ar    1  UNL1        0.0345
      9  N1        -0.7120    1.1850    0.0340 N.pl3   1  UNL1       -0.2836
     10  C7         0.1950    0.1030    0.0630 C.ar    1  UNL1        0.2200
     11  N2        -0.1630   -1.1660   -0.1340 N.ar    1  UNL1       -0.2226
     12  C8         0.6580   -2.2110   -0.1150 C.ar    1  UNL1        0.0332
     13  C9         2.0180   -1.9780    0.1310 C.ar    1  UNL1       -0.0174
     14  C10        2.4260   -0.6890    0.3380 C.ar    1  UNL1        0.0775
     15  C11        3.8370   -0.3860    0.6000 C.ar    1  UNL1        0.0186
     16  C12        4.8240   -1.3270    0.6570 C.ar    1  UNL1       -0.0497
     17  C13        6.1560   -0.9580    0.9130 C.ar    1  UNL1       -0.0430
     18  C14        6.4900    0.3610    1.1120 C.ar    1  UNL1        0.0276
     19  N3         5.5130    1.2740    1.0530 N.ar    1  UNL1       -0.2626
     20  C15        4.2330    0.9420    0.8090 C.ar    1  UNL1        0.0367
     21  N4         1.5160    0.3140    0.3000 N.ar    1  UNL1       -0.2142
     22  C16       -2.8280    0.0400   -0.4340 C.ar    1  UNL1       -0.0208
     23 H          -6.7496   -0.2335   -1.1005 H       1  UNL1        0.3009
     24 H          -3.4875   -2.3302   -0.7998 H       1  UNL1        0.6876
     25 H          -5.8945    1.3131   -0.7933 H       1  UNL1        0.0628
     26 H          -4.6472    3.3316   -0.3683 H       1  UNL1        0.0618
     27 H          -2.3004    3.2458    0.0009 H       1  UNL1        0.0636
     28 H          -0.3195    2.0735    0.1943 H       1  UNL1        0.1550
     29 H           0.3042   -3.1668   -0.2768 H       1  UNL1        0.0831
     30 H           2.6933   -2.7580    0.1553 H       1  UNL1        0.0654
     31 H           4.5896   -2.3213    0.5104 H       1  UNL1        0.0625
     32 H           6.8894   -1.6830    0.9519 H       1  UNL1        0.0633
     33 H           7.4657    0.6389    1.3014 H       1  UNL1        0.0829
     34 H           3.5205    1.6878    0.7746 H       1  UNL1        0.0836
     35 H          -2.3444   -0.8714   -0.4547 H       1  UNL1        0.0646
@<TRIPOS>UNITY_ATOM_ATTR
3 1
charge 1
@<TRIPOS>BOND
     1     1     2    1
     2     2     3    2
     3     2     4    1
     4     4     5   ar
     5     4    22   ar
     6     5     6   ar
     7     6     7   ar
     8     7     8   ar
     9     8     9    1
    10     8    22   ar
    11     9    10    1
    12    10    11   ar
    13    10    21   ar
    14    11    12   ar
    15    12    13   ar
    16    13    14   ar
    17    14    15    1
    18    14    21   ar
    19    15    16   ar
    20    15    20   ar
    21    16    17   ar
    22    17    18   ar
    23    18    19   ar
    24    19    20   ar
    25     1    23    1
    26     3    24    1
    27     5    25    1
    28     6    26    1
    29     7    27    1
    30     9    28    1
    31    12    29    1
    32    13    30    1
    33    16    31    1
    34    17    32    1
    35    18    33    1
    36    20    34    1
    37    22    35    1
@<TRIPOS>MOLECULE
../data/bude_mols_rdkit_confs_charged/molecule_47.pdb
 35 37 0 0 0
SMALL
GASTEIGER

@<TRIPOS>ATOM
      1  O1        -5.2730    2.6440    0.0960 O.3     1  UNL1       -0.4357
      2  C1        -5.6000    1.3130   -0.0750 C.2     1  UNL1        0.5213
      3  O2        -6.7910    1.0080   -0.2310 O.2     1  UNL1       -0.2382
      4  C2        -4.5690    0.2820   -0.0720 C.ar    1  UNL1        0.1224
      5  C3        -4.8300   -1.0450   -0.2360 C.ar    1  UNL1       -0.0419
      6  C4        -3.7880   -1.9430   -0.2190 C.ar    1  UNL1       -0.0590
      7  C5        -2.4660   -1.5220   -0.0370 C.ar    1  UNL1       -0.0404
      8  C6        -2.1700   -0.1920    0.1300 C.ar    1  UNL1        0.0345
      9  N1        -0.8750    0.3480    0.3020 N.pl3   1  UNL1       -0.2836
     10  C7         0.3590   -0.3010    0.0830 C.ar    1  UNL1        0.2200
     11  N2         0.4040   -1.5610   -0.3400 N.ar    1  UNL1       -0.2226
     12  C8         1.5020   -2.2720   -0.5790 C.ar    1  UNL1        0.0332
     13  C9         2.7160   -1.6370   -0.3670 C.ar    1  UNL1       -0.0174
     14  C10        2.7060   -0.3340    0.0710 C.ar    1  UNL1        0.0775
     15  C11        3.9750    0.3760    0.3090 C.ar    1  UNL1        0.0186
     16  C12        5.1850   -0.2220    0.1070 C.ar    1  UNL1       -0.0497
     17  C13        6.3890    0.4660    0.3370 C.ar    1  UNL1       -0.0430
     18  C14        6.2930    1.7670    0.7740 C.ar    1  UNL1        0.0276
     19  N3         5.0960    2.3410    0.9680 N.ar    1  UNL1       -0.2626
     20  C15        3.9480    1.6840    0.7470 C.ar    1  UNL1        0.0367
     21  N4         1.5340    0.3270    0.2940 N.ar    1  UNL1       -0.2142
     22  C16       -3.2480    0.6750    0.1060 C.ar    1  UNL1       -0.0208
     23 H          -4.3782    2.8950    0.2154 H       1  UNL1        0.3009
     24 H          -7.0333    0.1105   -0.3486 H       1  UNL1        0.6876
     25 H          -5.7990   -1.3731   -0.3715 H       1  UNL1        0.0628
     26 H          -3.9855   -2.9483   -0.3431 H       1  UNL1        0.0618
     27 H          -1.7051   -2.2191   -0.0282 H       1  UNL1        0.0636
     28 H          -0.8286    1.2822    0.6092 H       1  UNL1        0.1550
     29 H           1.4528   -3.2494   -0.9065 H       1  UNL1        0.0831
     30 H           3.6065   -2.1310   -0.5341 H       1  UNL1        0.0654
     31 H           5.2167   -1.1998   -0.2215 H       1  UNL1        0.0625
     32 H           7.3047    0.0150    0.1848 H       1  UNL1        0.0633
     33 H           7.1528    2.3083    0.9549 H       1  UNL1        0.0829
     34 H           3.0443    2.1568    0.9046 H       1  UNL1        0.0836
     35 H          -3.0582    1.6819    0.2286 H       1  UNL1        0.0646
@<TRIPOS>UNITY_ATOM_ATTR
3 1
charge 1
@<TRIPOS>BOND
     1     1     2    1
     2     2     3    2
     3     2     4    1
     4     4     5   ar
     5     4    22   ar
     6     5     6   ar
     7     6     7   ar
     8     7     8   ar
     9     8     9    1
    10     8    22   ar
    11     9    10    1
    12    10    11   ar
    13    10    21   ar
    14    11    12   ar
    15    12    13   ar
    16    13    14   ar
    17    14    15    1
    18    14    21   ar
    19    15    16   ar
    20    15    20   ar
    21    16    17   ar
    22    17    18   ar
    23    18    19   ar
    24    19    20   ar
    25     1    23    1
    26     3    24    1
    27     5    25    1
    28     6    26    1
    29     7    27    1
    30     9    28    1
    31    12    29    1
    32    13    30    1
    33    16    31    1
    34    17    32    1
    35    18    33    1
    36    20    34    1
    37    22    35    1
@<TRIPOS>MOLECULE
../data/bude_mols_rdkit_confs_charged/molecule_47.pdb
 35 37 0 0 0
SMALL
GASTEIGER

@<TRIPOS>ATOM
      1  O1         5.1730    2.1060    1.7090 O.3     1  UNL1       -0.4357
      2  C1         5.4910    0.9620    0.9670 C.2     1  UNL1        0.5213
      3  O2         6.6880    0.6740    0.8520 O.2     1  UNL1       -0.2382
      4  C2         4.4500    0.1450    0.3560 C.ar    1  UNL1        0.1224
      5  C3         4.7860   -0.9710   -0.3660 C.ar    1  UNL1       -0.0419
      6  C4         3.7820   -1.7220   -0.9310 C.ar    1  UNL1       -0.0590
      7  C5         2.4530   -1.3790   -0.7870 C.ar    1  UNL1       -0.0404
      8  C6         2.0770   -0.2660   -0.0700 C.ar    1  UNL1        0.0345
      9  N1         0.7740    0.1740    0.1410 N.pl3   1  UNL1       -0.2836
     10  C7        -0.4210   -0.4390   -0.3440 C.ar    1  UNL1        0.2200
     11  N2        -0.4720   -1.5390   -1.0810 N.ar    1  UNL1       -0.2226
     12  C8        -1.5930   -2.1070   -1.5300 C.ar    1  UNL1        0.0332
     13  C9        -2.8220   -1.5200   -1.2170 C.ar    1  UNL1       -0.0174
     14  C10       -2.7970   -0.3790   -0.4560 C.ar    1  UNL1        0.0775
     15  C11       -4.0440    0.2890   -0.0910 C.ar    1  UNL1        0.0186
     16  C12       -3.9450    1.4470    0.6870 C.ar    1  UNL1       -0.0497
     17  C13       -5.1310    2.0620    1.0210 C.ar    1  UNL1       -0.0430
     18  C14       -6.3450    1.5550    0.6060 C.ar    1  UNL1        0.0276
     19  N3        -6.3730    0.4460   -0.1350 N.ar    1  UNL1       -0.2626
     20  C15       -5.2350   -0.2120   -0.5010 C.ar    1  UNL1        0.0367
     21  N4        -1.6140    0.1270   -0.0430 N.ar    1  UNL1       -0.2142
     22  C16        3.1210    0.4780    0.4930 C.ar    1  UNL1       -0.0208
     23 H           4.2775    2.3586    1.8198 H       1  UNL1        0.3009
     24 H           6.9427   -0.0838    0.3633 H       1  UNL1        0.6876
     25 H           5.7747   -1.2426   -0.4834 H       1  UNL1        0.0628
     26 H           4.0285   -2.5629   -1.4762 H       1  UNL1        0.0618
     27 H           1.7276   -1.9680   -1.2251 H       1  UNL1        0.0636
     28 H           0.6648    0.9910    0.6794 H       1  UNL1        0.1550
     29 H          -1.5529   -2.9666   -2.0997 H       1  UNL1        0.0831
     30 H          -3.7115   -1.9280   -1.5448 H       1  UNL1        0.0654
     31 H          -3.0331    1.8201    0.9940 H       1  UNL1        0.0625
     32 H          -5.1112    2.9202    1.5938 H       1  UNL1        0.0633
     33 H          -7.2237    2.0294    0.8664 H       1  UNL1        0.0829
     34 H          -5.2799   -1.0686   -1.0749 H       1  UNL1        0.0836
     35 H           2.8818    1.3202    1.0394 H       1  UNL1        0.0646
@<TRIPOS>UNITY_ATOM_ATTR
3 1
charge 1
@<TRIPOS>BOND
     1     1     2    1
     2     2     3    2
     3     2     4    1
     4     4     5   ar
     5     4    22   ar
     6     5     6   ar
     7     6     7   ar
     8     7     8   ar
     9     8     9    1
    10     8    22   ar
    11     9    10    1
    12    10    11   ar
    13    10    21   ar
    14    11    12   ar
    15    12    13   ar
    16    13    14   ar
    17    14    15    1
    18    14    21   ar
    19    15    16   ar
    20    15    20   ar
    21    16    17   ar
    22    17    18   ar
    23    18    19   ar
    24    19    20   ar
    25     1    23    1
    26     3    24    1
    27     5    25    1
    28     6    26    1
    29     7    27    1
    30     9    28    1
    31    12    29    1
    32    13    30    1
    33    16    31    1
    34    17    32    1
    35    18    33    1
    36    20    34    1
    37    22    35    1
@<TRIPOS>MOLECULE
../data/bude_mols_rdkit_confs_charged/molecule_47.pdb
 35 37 0 0 0
SMALL
GASTEIGER

@<TRIPOS>ATOM
      1  O1         4.2900    0.2950    2.2280 O.3     1  UNL1       -0.4357
      2  C1         4.9360    0.0570    1.0110 C.2     1  UNL1        0.5213
      3  O2         6.1760    0.0560    1.0190 O.2     1  UNL1       -0.2382
      4  C2         4.1940   -0.1790   -0.2100 C.ar    1  UNL1        0.1224
      5  C3         4.7550   -0.4200   -1.4380 C.ar    1  UNL1       -0.0419
      6  C4         3.9510   -0.6360   -2.5580 C.ar    1  UNL1       -0.0590
      7  C5         2.5850   -0.6190   -2.4840 C.ar    1  UNL1       -0.0404
      8  C6         1.9850   -0.3760   -1.2400 C.ar    1  UNL1        0.0345
      9  N1         0.5800   -0.3770   -1.2060 N.pl3   1  UNL1       -0.2836
     10  C7        -0.2420    0.0220   -0.1220 C.ar    1  UNL1        0.2200
     11  N2         0.2040    0.4690    1.0460 N.ar    1  UNL1       -0.2226
     12  C8        -0.5380    0.8500    2.0810 C.ar    1  UNL1        0.0332
     13  C9        -1.9260    0.7620    1.9000 C.ar    1  UNL1       -0.0174
     14  C10       -2.4170    0.3110    0.7250 C.ar    1  UNL1        0.0775
     15  C11       -3.8700    0.2140    0.5250 C.ar    1  UNL1        0.0186
     16  C12       -4.3520   -0.2560   -0.7010 C.ar    1  UNL1       -0.0497
     17  C13       -5.6900   -0.3840   -0.9900 C.ar    1  UNL1       -0.0430
     18  C14       -6.5660   -0.0190    0.0110 C.ar    1  UNL1        0.0276
     19  N3        -6.1250    0.4350    1.1940 N.ar    1  UNL1       -0.2626
     20  C15       -4.7950    0.5580    1.4690 C.ar    1  UNL1        0.0367
     21  N4        -1.5790   -0.0530   -0.2680 N.ar    1  UNL1       -0.2142
     22  C16        2.7970   -0.1660   -0.1510 C.ar    1  UNL1       -0.0208
     23 H           3.3539    0.3046    2.2675 H       1  UNL1        0.3009
     24 H           6.6495   -0.0993    0.2255 H       1  UNL1        0.6876
     25 H           5.7822   -0.4418   -1.5348 H       1  UNL1        0.0628
     26 H           4.4005   -0.8140   -3.4698 H       1  UNL1        0.0618
     27 H           2.0090   -0.7814   -3.3248 H       1  UNL1        0.0636
     28 H           0.1190   -0.6868   -2.0189 H       1  UNL1        0.1550
     29 H          -0.1195    1.1889    2.9614 H       1  UNL1        0.0831
     30 H          -2.5677    1.0398    2.6590 H       1  UNL1        0.0654
     31 H          -3.6675   -0.5205   -1.4266 H       1  UNL1        0.0625
     32 H          -6.0200   -0.7331   -1.9034 H       1  UNL1        0.0633
     33 H          -7.5818   -0.0968   -0.1535 H       1  UNL1        0.0829
     34 H          -4.4880    0.9105    2.3891 H       1  UNL1        0.0836
     35 H           2.3502    0.0114    0.7622 H       1  UNL1        0.0646
@<TRIPOS>UNITY_ATOM_ATTR
3 1
charge 1
@<TRIPOS>BOND
     1     1     2    1
     2     2     3    2
     3     2     4    1
     4     4     5   ar
     5     4    22   ar
     6     5     6   ar
     7     6     7   ar
     8     7     8   ar
     9     8     9    1
    10     8    22   ar
    11     9    10    1
    12    10    11   ar
    13    10    21   ar
    14    11    12   ar
    15    12    13   ar
    16    13    14   ar
    17    14    15    1
    18    14    21   ar
    19    15    16   ar
    20    15    20   ar
    21    16    17   ar
    22    17    18   ar
    23    18    19   ar
    24    19    20   ar
    25     1    23    1
    26     3    24    1
    27     5    25    1
    28     6    26    1
    29     7    27    1
    30     9    28    1
    31    12    29    1
    32    13    30    1
    33    16    31    1
    34    17    32    1
    35    18    33    1
    36    20    34    1
    37    22    35    1
@<TRIPOS>MOLECULE
../data/bude_mols_rdkit_confs_charged/molecule_47.pdb
 35 37 0 0 0
SMALL
GASTEIGER

@<TRIPOS>ATOM
      1  O1        -6.8470    0.7250    0.8450 O.3     1  UNL1       -0.4357
      2  C1        -5.5120    1.1750    0.8310 C.2     1  UNL1        0.5213
      3  O2        -5.3600    2.3950    1.0390 O.2     1  UNL1       -0.2382
      4  C2        -4.4410    0.2260    0.5840 C.ar    1  UNL1        0.1224
      5  C3        -4.7240   -1.1120    0.3640 C.ar    1  UNL1       -0.0419
      6  C4        -3.7440   -2.0380    0.1290 C.ar    1  UNL1       -0.0590
      7  C5        -2.4120   -1.5890    0.1140 C.ar    1  UNL1       -0.0404
      8  C6        -2.0600   -0.2800    0.3240 C.ar    1  UNL1        0.0345
      9  N1        -0.7490    0.2120    0.3040 N.pl3   1  UNL1       -0.2836
     10  C7         0.4070   -0.4580   -0.1210 C.ar    1  UNL1        0.2200
     11  N2         0.3920   -1.7130   -0.5910 N.ar    1  UNL1       -0.2226
     12  C8         1.4540   -2.3950   -1.0060 C.ar    1  UNL1        0.0332
     13  C9         2.6800   -1.7450   -0.9450 C.ar    1  UNL1       -0.0174
     14  C10        2.7180   -0.4590   -0.4680 C.ar    1  UNL1        0.0775
     15  C11        3.9670    0.2520   -0.3880 C.ar    1  UNL1        0.0186
     16  C12        3.9770    1.5600    0.1020 C.ar    1  UNL1       -0.0497
     17  C13        5.1940    2.1980    0.1600 C.ar    1  UNL1       -0.0430
     18  C14        6.3750    1.6160   -0.2360 C.ar    1  UNL1        0.0276
     19  N3         6.3110    0.3570   -0.6990 N.ar    1  UNL1       -0.2626
     20  C15        5.1380   -0.3360   -0.7840 C.ar    1  UNL1        0.0367
     21  N4         1.6080    0.1730   -0.0640 N.ar    1  UNL1       -0.2142
     22  C16       -3.1360    0.6100    0.5600 C.ar    1  UNL1       -0.0208
     23 H          -7.0379   -0.1802    0.6962 H       1  UNL1        0.3009
     24 H          -4.4995    2.7657    1.0444 H       1  UNL1        0.6876
     25 H          -5.7084   -1.4215    0.3778 H       1  UNL1        0.0628
     26 H          -3.9748   -3.0310   -0.0315 H       1  UNL1        0.0618
     27 H          -1.6634   -2.2769   -0.0634 H       1  UNL1        0.0636
     28 H          -0.6248    1.1343    0.6253 H       1  UNL1        0.1550
     29 H           1.3719   -3.3620   -1.3571 H       1  UNL1        0.0831
     30 H           3.5438   -2.2191   -1.2518 H       1  UNL1        0.0654
     31 H           3.1090    2.0273    0.4072 H       1  UNL1        0.0625
     32 H           5.2222    3.1648    0.5198 H       1  UNL1        0.0633
     33 H           7.2714    2.1243   -0.1799 H       1  UNL1        0.0829
     34 H           5.1340   -1.3023   -1.1464 H       1  UNL1        0.0836
     35 H          -2.9180    1.6055    0.7229 H       1  UNL1        0.0646
@<TRIPOS>UNITY_ATOM_ATTR
3 1
charge 1
@<TRIPOS>BOND
     1     1     2    1
     2     2     3    2
     3     2     4    1
     4     4     5   ar
     5     4    22   ar
     6     5     6   ar
     7     6     7   ar
     8     7     8   ar
     9     8     9    1
    10     8    22   ar
    11     9    10    1
    12    10    11   ar
    13    10    21   ar
    14    11    12   ar
    15    12    13   ar
    16    13    14   ar
    17    14    15    1
    18    14    21   ar
    19    15    16   ar
    20    15    20   ar
    21    16    17   ar
    22    17    18   ar
    23    18    19   ar
    24    19    20   ar
    25     1    23    1
    26     3    24    1
    27     5    25    1
    28     6    26    1
    29     7    27    1
    30     9    28    1
    31    12    29    1
    32    13    30    1
    33    16    31    1
    34    17    32    1
    35    18    33    1
    36    20    34    1
    37    22    35    1
@<TRIPOS>MOLECULE
../data/bude_mols_rdkit_confs_charged/molecule_47.pdb
 35 37 0 0 0
SMALL
GASTEIGER

@<TRIPOS>ATOM
      1  O1        -4.4660   -0.3010   -2.1190 O.3     1  UNL1       -0.4357
      2  C1        -4.9910   -0.1490   -0.8640 C.2     1  UNL1        0.5213
      3  O2        -6.2350   -0.0710   -0.7280 O.2     1  UNL1       -0.2382
      4  C2        -4.1810   -0.0680    0.3610 C.ar    1  UNL1        0.1224
      5  C3        -4.7500    0.0850    1.5990 C.ar    1  UNL1       -0.0419
      6  C4        -4.0000    0.1610    2.7490 C.ar    1  UNL1       -0.0590
      7  C5        -2.6410    0.0790    2.6220 C.ar    1  UNL1       -0.0404
      8  C6        -1.9980   -0.0790    1.3720 C.ar    1  UNL1        0.0345
      9  N1        -0.5930   -0.1680    1.4240 N.pl3   1  UNL1       -0.2836
     10  C7         0.2450    0.0380    0.3120 C.ar    1  UNL1        0.2200
     11  N2        -0.2690    0.3520   -0.8780 N.ar    1  UNL1       -0.2226
     12  C8         0.5150    0.5480   -1.9300 C.ar    1  UNL1        0.0332
     13  C9         1.9060    0.4260   -1.7980 C.ar    1  UNL1       -0.0174
     14  C10        2.4450    0.1050   -0.5820 C.ar    1  UNL1        0.0775
     15  C11        3.8760   -0.0300   -0.4020 C.ar    1  UNL1        0.0186
     16  C12        4.7980    0.1490   -1.4200 C.ar    1  UNL1       -0.0497
     17  C13        6.1540    0.0140   -1.2250 C.ar    1  UNL1       -0.0430
     18  C14        6.6270   -0.3100    0.0240 C.ar    1  UNL1        0.0276
     19  N3         5.7340   -0.4910    1.0410 N.ar    1  UNL1       -0.2626
     20  C15        4.4160   -0.3590    0.8460 C.ar    1  UNL1        0.0367
     21  N4         1.6120   -0.0820    0.4450 N.ar    1  UNL1       -0.2142
     22  C16       -2.7870   -0.1500    0.2610 C.ar    1  UNL1       -0.0208
     23 H          -3.5381   -0.3606   -2.2346 H       1  UNL1        0.3009
     24 H          -6.6074    0.0332    0.1255 H       1  UNL1        0.6876
     25 H          -5.7778    0.1453    1.6703 H       1  UNL1        0.0628
     26 H          -4.4458    0.2756    3.6727 H       1  UNL1        0.0618
     27 H          -2.0604    0.1347    3.4734 H       1  UNL1        0.0636
     28 H          -0.1734   -0.3867    2.2873 H       1  UNL1        0.1550
     29 H           0.1020    0.7899   -2.8443 H       1  UNL1        0.0831
     30 H           2.5197    0.5775   -2.6137 H       1  UNL1        0.0654
     31 H           4.4548    0.3933   -2.3621 H       1  UNL1        0.0625
     32 H           6.8094    0.1548   -2.0096 H       1  UNL1        0.0633
     33 H           7.6401   -0.4147    0.1905 H       1  UNL1        0.0829
     34 H           3.7769   -0.5048    1.6431 H       1  UNL1        0.0836
     35 H          -2.3497   -0.2658   -0.6666 H       1  UNL1        0.0646
@<TRIPOS>UNITY_ATOM_ATTR
3 1
charge 1
@<TRIPOS>BOND
     1     1     2    1
     2     2     3    2
     3     2     4    1
     4     4     5   ar
     5     4    22   ar
     6     5     6   ar
     7     6     7   ar
     8     7     8   ar
     9     8     9    1
    10     8    22   ar
    11     9    10    1
    12    10    11   ar
    13    10    21   ar
    14    11    12   ar
    15    12    13   ar
    16    13    14   ar
    17    14    15    1
    18    14    21   ar
    19    15    16   ar
    20    15    20   ar
    21    16    17   ar
    22    17    18   ar
    23    18    19   ar
    24    19    20   ar
    25     1    23    1
    26     3    24    1
    27     5    25    1
    28     6    26    1
    29     7    27    1
    30     9    28    1
    31    12    29    1
    32    13    30    1
    33    16    31    1
    34    17    32    1
    35    18    33    1
    36    20    34    1
    37    22    35    1
@<TRIPOS>MOLECULE
../data/bude_mols_rdkit_confs_charged/molecule_47.pdb
 35 37 0 0 0
SMALL
GASTEIGER

@<TRIPOS>ATOM
      1  O1         5.4770    2.3230    0.2020 O.3     1  UNL1       -0.4357
      2  C1         5.6870    0.9370    0.2840 C.2     1  UNL1        0.5213
      3  O2         6.8710    0.5760    0.3140 O.2     1  UNL1       -0.2382
      4  C2         4.5500    0.0150    0.3290 C.ar    1  UNL1        0.1224
      5  C3         4.6990   -1.3460    0.4090 C.ar    1  UNL1       -0.0419
      6  C4         3.6240   -2.2070    0.4520 C.ar    1  UNL1       -0.0590
      7  C5         2.3250   -1.7090    0.4140 C.ar    1  UNL1       -0.0404
      8  C6         2.1330   -0.3510    0.3330 C.ar    1  UNL1        0.0345
      9  N1         0.8650    0.2540    0.2740 N.pl3   1  UNL1       -0.2836
     10  C7        -0.3670   -0.3490    0.0660 C.ar    1  UNL1        0.2200
     11  N2        -0.5060   -1.6580   -0.1220 N.ar    1  UNL1       -0.2226
     12  C8        -1.6450   -2.3170   -0.3270 C.ar    1  UNL1        0.0332
     13  C9        -2.8140   -1.5450   -0.3460 C.ar    1  UNL1       -0.0174
     14  C10       -2.7320   -0.1820   -0.1570 C.ar    1  UNL1        0.0775
     15  C11       -3.9250    0.6540   -0.1700 C.ar    1  UNL1        0.0186
     16  C12       -5.1840    0.1440   -0.3680 C.ar    1  UNL1       -0.0497
     17  C13       -6.3020    0.9840   -0.3730 C.ar    1  UNL1       -0.0430
     18  C14       -6.1220    2.3350   -0.1750 C.ar    1  UNL1        0.0276
     19  N3        -4.8820    2.7900    0.0140 N.ar    1  UNL1       -0.2626
     20  C15       -3.7830    2.0090    0.0240 C.ar    1  UNL1        0.0367
     21  N4        -1.5300    0.3750    0.0410 N.ar    1  UNL1       -0.2142
     22  C16        3.2620    0.4930    0.2930 C.ar    1  UNL1       -0.0208
     23 H           4.6046    2.6639    0.1755 H       1  UNL1        0.3009
     24 H           7.0817   -0.3354    0.3685 H       1  UNL1        0.6876
     25 H           5.6523   -1.7402    0.4381 H       1  UNL1        0.0628
     26 H           3.7827   -3.2249    0.5126 H       1  UNL1        0.0618
     27 H           1.5174   -2.3507    0.4462 H       1  UNL1        0.0636
     28 H           0.8495    1.2308    0.3959 H       1  UNL1        0.1550
     29 H          -1.6654   -3.3396   -0.4643 H       1  UNL1        0.0831
     30 H          -3.7304   -1.9938   -0.5005 H       1  UNL1        0.0654
     31 H          -5.3067   -0.8701   -0.5147 H       1  UNL1        0.0625
     32 H          -7.2472    0.5976   -0.5227 H       1  UNL1        0.0633
     33 H          -6.9273    2.9803   -0.1729 H       1  UNL1        0.0829
     34 H          -2.8490    2.4213    0.1749 H       1  UNL1        0.0836
     35 H           3.1148    1.5128    0.2342 H       1  UNL1        0.0646
@<TRIPOS>UNITY_ATOM_ATTR
3 1
charge 1
@<TRIPOS>BOND
     1     1     2    1
     2     2     3    2
     3     2     4    1
     4     4     5   ar
     5     4    22   ar
     6     5     6   ar
     7     6     7   ar
     8     7     8   ar
     9     8     9    1
    10     8    22   ar
    11     9    10    1
    12    10    11   ar
    13    10    21   ar
    14    11    12   ar
    15    12    13   ar
    16    13    14   ar
    17    14    15    1
    18    14    21   ar
    19    15    16   ar
    20    15    20   ar
    21    16    17   ar
    22    17    18   ar
    23    18    19   ar
    24    19    20   ar
    25     1    23    1
    26     3    24    1
    27     5    25    1
    28     6    26    1
    29     7    27    1
    30     9    28    1
    31    12    29    1
    32    13    30    1
    33    16    31    1
    34    17    32    1
    35    18    33    1
    36    20    34    1
    37    22    35    1
@<TRIPOS>MOLECULE
../data/bude_mols_rdkit_confs_charged/molecule_47.pdb
 35 37 0 0 0
SMALL
GASTEIGER

@<TRIPOS>ATOM
      1  O1         6.2140    1.3760    0.9780 O.3     1  UNL1       -0.4357
      2  C1         5.4580    0.5710    0.1440 C.2     1  UNL1        0.5213
      3  O2         6.0060   -0.0030   -0.8060 O.2     1  UNL1       -0.2382
      4  C2         4.0240    0.4090    0.3950 C.ar    1  UNL1        0.1224
      5  C3         3.4400    1.0720    1.4770 C.ar    1  UNL1       -0.0419
      6  C4         2.0970    0.9280    1.7220 C.ar    1  UNL1       -0.0590
      7  C5         1.2810    0.1320    0.9200 C.ar    1  UNL1       -0.0404
      8  C6         1.8550   -0.5220   -0.1460 C.ar    1  UNL1        0.0345
      9  N1         1.0930   -1.3300   -1.0140 N.pl3   1  UNL1       -0.2836
     10  C7        -0.3150   -1.3910   -1.1200 C.ar    1  UNL1        0.2200
     11  N2        -0.8040   -2.2710   -2.0340 N.ar    1  UNL1       -0.2226
     12  C8        -2.1050   -2.4400   -2.2640 C.ar    1  UNL1        0.0332
     13  C9        -2.9960   -1.6730   -1.5270 C.ar    1  UNL1       -0.0174
     14  C10       -2.5350   -0.7760   -0.5970 C.ar    1  UNL1        0.0775
     15  C11       -3.4460    0.0610    0.1970 C.ar    1  UNL1        0.0186
     16  C12       -2.9460    0.9790    1.1010 C.ar    1  UNL1       -0.0497
     17  C13       -3.8150    1.7720    1.8590 C.ar    1  UNL1       -0.0430
     18  C14       -5.1800    1.6550    1.7210 C.ar    1  UNL1        0.0276
     19  N3        -5.6430    0.7600    0.8400 N.ar    1  UNL1       -0.2626
     20  C15       -4.8040   -0.0240    0.0900 C.ar    1  UNL1        0.0367
     21  N4        -1.2020   -0.6790   -0.4380 N.ar    1  UNL1       -0.2142
     22  C16        3.2260   -0.3700   -0.3900 C.ar    1  UNL1       -0.0208
     23 H           5.8083    1.8147    1.6998 H       1  UNL1        0.3009
     24 H           5.5026   -0.5501   -1.3763 H       1  UNL1        0.6876
     25 H           4.0167    1.6686    2.0906 H       1  UNL1        0.0628
     26 H           1.6788    1.4242    2.5244 H       1  UNL1        0.0618
     27 H           0.2732    0.0357    1.1203 H       1  UNL1        0.0636
     28 H           1.6006   -1.9205   -1.6164 H       1  UNL1        0.1550
     29 H          -2.4390   -3.1183   -2.9664 H       1  UNL1        0.0831
     30 H          -4.0113   -1.7779   -1.6793 H       1  UNL1        0.0654
     31 H          -1.9257    1.0804    1.2178 H       1  UNL1        0.0625
     32 H          -3.4276    2.4535    2.5303 H       1  UNL1        0.0633
     33 H          -5.8243    2.2377    2.2780 H       1  UNL1        0.0829
     34 H          -5.2120   -0.6989   -0.5756 H       1  UNL1        0.0836
     35 H           3.6469   -0.8648   -1.1919 H       1  UNL1        0.0646
@<TRIPOS>UNITY_ATOM_ATTR
3 1
charge 1
@<TRIPOS>BOND
     1     1     2    1
     2     2     3    2
     3     2     4    1
     4     4     5   ar
     5     4    22   ar
     6     5     6   ar
     7     6     7   ar
     8     7     8   ar
     9     8     9    1
    10     8    22   ar
    11     9    10    1
    12    10    11   ar
    13    10    21   ar
    14    11    12   ar
    15    12    13   ar
    16    13    14   ar
    17    14    15    1
    18    14    21   ar
    19    15    16   ar
    20    15    20   ar
    21    16    17   ar
    22    17    18   ar
    23    18    19   ar
    24    19    20   ar
    25     1    23    1
    26     3    24    1
    27     5    25    1
    28     6    26    1
    29     7    27    1
    30     9    28    1
    31    12    29    1
    32    13    30    1
    33    16    31    1
    34    17    32    1
    35    18    33    1
    36    20    34    1
    37    22    35    1
