@<TRIPOS>MOLECULE
../data/bude_mols_rdkit_confs_charged/molecule_37.pdb
 27 29 0 0 0
SMALL
GASTEIGER

@<TRIPOS>ATOM
      1  O1        -0.0500   -1.2440    2.7690 O.2     1  UNL1       -0.1841
      2  S1        -0.4710   -1.6250    1.3820 S.O2    1  UNL1       -0.0567
      3  O2        -1.2600   -2.9200    1.5290 O.2     1  UNL1       -0.1841
      4  N1         0.8620   -1.9050    0.3550 N.pl3   1  UNL1       -0.5345
      5  C1         1.8330   -0.9470   -0.0070 C.ar    1  UNL1       -0.0933
      6  C2         2.9510   -0.8060    0.7700 C.ar    1  UNL1       -0.0735
      7  C3         3.9390    0.1080    0.4810 C.ar    1  UNL1       -0.0627
      8  C4         3.7960    0.9070   -0.6250 C.ar    1  UNL1       -0.0591
      9  C5         2.6820    0.7800   -1.4140 C.ar    1  UNL1       -0.0277
     10  C6         1.6910   -0.1400   -1.1220 C.ar    1  UNL1        0.1092
     11  F1         0.5910   -0.2540   -1.9180 F       1  UNL1       -0.2068
     12  C7        -1.5690   -0.4140    0.7640 C.ar    1  UNL1        0.1033
     13  C8        -1.8110    0.7290    1.4820 C.ar    1  UNL1       -0.0359
     14  C9        -2.6670    1.6730    1.0010 C.ar    1  UNL1       -0.0578
     15  C10       -3.3160    1.5150   -0.2160 C.ar    1  UNL1       -0.0307
     16  C11       -3.0920    0.3860   -0.9510 C.ar    1  UNL1        0.1360
     17  N2        -3.5460   -0.0620   -2.1330 N.ar    1  UNL1       -0.0489
     18  O3        -2.9860   -1.2160   -2.3410 O.2     1  UNL1       -0.2415
     19  N3        -2.2000   -1.5440   -1.3740 N.ar    1  UNL1       -0.0470
     20  C12       -2.2220   -0.5560   -0.4450 C.ar    1  UNL1        0.1575
     21 H           3.0571   -1.4066    1.6025 H       1  UNL1        0.0606
     22 H           4.7717    0.1906    1.0850 H       1  UNL1        0.0617
     23 H           4.5231    1.6000   -0.8618 H       1  UNL1        0.0618
     24 H           2.5805    1.3843   -2.2444 H       1  UNL1        0.0646
     25 H          -1.3428    0.8745    2.3901 H       1  UNL1        0.0637
     26 H          -2.8373    2.5269    1.5550 H       1  UNL1        0.0619
     27 H          -3.9608    2.2429   -0.5616 H       1  UNL1        0.0640
@<TRIPOS>UNITY_ATOM_ATTR
4 1
charge -1
@<TRIPOS>BOND
     1     1     2    2
     2     2     3    2
     3     2     4    1
     4     2    12    1
     5     4     5    1
     6     5     6   ar
     7     5    10   ar
     8     6     7   ar
     9     7     8   ar
    10     8     9   ar
    11     9    10   ar
    12    10    11    1
    13    12    13   ar
    14    12    20   ar
    15    13    14   ar
    16    14    15   ar
    17    15    16   ar
    18    16    17   ar
    19    16    20   ar
    20    17    18   ar
    21    18    19   ar
    22    19    20   ar
    23     6    21    1
    24     7    22    1
    25     8    23    1
    26     9    24    1
    27    13    25    1
    28    14    26    1
    29    15    27    1
@<TRIPOS>MOLECULE
../data/bude_mols_rdkit_confs_charged/molecule_37.pdb
 27 29 0 0 0
SMALL
GASTEIGER

@<TRIPOS>ATOM
      1  O1         0.2060    1.8740   -1.0550 O.2     1  UNL1       -0.1841
      2  S1        -0.3280    1.5770    0.3440 S.O2    1  UNL1       -0.0567
      3  O2        -0.5640    2.8970    1.0510 O.2     1  UNL1       -0.1841
      4  N1         0.8400    0.6360    1.1810 N.pl3   1  UNL1       -0.5345
      5  C1         2.0230    0.1190    0.5970 C.ar    1  UNL1       -0.0933
      6  C2         2.1200   -1.1180    0.0020 C.ar    1  UNL1       -0.0735
      7  C3         3.3190   -1.5730   -0.5440 C.ar    1  UNL1       -0.0627
      8  C4         4.3850   -0.7110   -0.4490 C.ar    1  UNL1       -0.0591
      9  C5         4.3310    0.5280    0.1350 C.ar    1  UNL1       -0.0277
     10  C6         3.1370    0.9500    0.6650 C.ar    1  UNL1        0.1092
     11  F1         3.0500    2.1640    1.2470 F       1  UNL1       -0.2068
     12  C7        -1.8330    0.7100    0.2140 C.ar    1  UNL1        0.1033
     13  C8        -2.9570    1.2460    0.8550 C.ar    1  UNL1       -0.0359
     14  C9        -4.1710    0.6110    0.8030 C.ar    1  UNL1       -0.0578
     15  C10       -4.3270   -0.5640    0.1250 C.ar    1  UNL1       -0.0307
     16  C11       -3.2480   -1.1260   -0.5200 C.ar    1  UNL1        0.1360
     17  N2        -3.0430   -2.2350   -1.2640 N.ar    1  UNL1       -0.0489
     18  O3        -1.7830   -2.2570   -1.6320 O.2     1  UNL1       -0.2415
     19  N3        -1.1750   -1.2120   -1.1560 N.ar    1  UNL1       -0.0470
     20  C12       -2.0210   -0.4630   -0.4540 C.ar    1  UNL1        0.1575
     21 H           1.2852   -1.7232   -0.0410 H       1  UNL1        0.0606
     22 H           3.4011   -2.4993   -0.9916 H       1  UNL1        0.0617
     23 H           5.2878   -1.0173   -0.8443 H       1  UNL1        0.0618
     24 H           5.1685    1.1296    0.1753 H       1  UNL1        0.0646
     25 H          -2.8700    2.1332    1.3749 H       1  UNL1        0.0637
     26 H          -4.9821    1.0289    1.2853 H       1  UNL1        0.0619
     27 H          -5.2483   -1.0282    0.0962 H       1  UNL1        0.0640
@<TRIPOS>UNITY_ATOM_ATTR
4 1
charge -1
@<TRIPOS>BOND
     1     1     2    2
     2     2     3    2
     3     2     4    1
     4     2    12    1
     5     4     5    1
     6     5     6   ar
     7     5    10   ar
     8     6     7   ar
     9     7     8   ar
    10     8     9   ar
    11     9    10   ar
    12    10    11    1
    13    12    13   ar
    14    12    20   ar
    15    13    14   ar
    16    14    15   ar
    17    15    16   ar
    18    16    17   ar
    19    16    20   ar
    20    17    18   ar
    21    18    19   ar
    22    19    20   ar
    23     6    21    1
    24     7    22    1
    25     8    23    1
    26     9    24    1
    27    13    25    1
    28    14    26    1
    29    15    27    1
@<TRIPOS>MOLECULE
../data/bude_mols_rdkit_confs_charged/molecule_37.pdb
 27 29 0 0 0
SMALL
GASTEIGER

@<TRIPOS>ATOM
      1  O1        -1.3010    1.3560   -3.0590 O.2     1  UNL1       -0.1841
      2  S1        -0.4270    1.2360   -1.8340 S.O2    1  UNL1       -0.0567
      3  O2         0.1920    2.5650   -1.5360 O.2     1  UNL1       -0.1841
      4  N1         0.7510    0.0120   -2.0950 N.pl3   1  UNL1       -0.5345
      5  C1         1.6890   -0.2820   -1.0550 C.ar    1  UNL1       -0.0933
      6  C2         1.4350   -1.2310   -0.0870 C.ar    1  UNL1       -0.0735
      7  C3         2.3550   -1.4980    0.9060 C.ar    1  UNL1       -0.0627
      8  C4         3.5650   -0.8190    0.9620 C.ar    1  UNL1       -0.0591
      9  C5         3.8200    0.1260    0.0000 C.ar    1  UNL1       -0.0277
     10  C6         2.8930    0.3820   -0.9850 C.ar    1  UNL1        0.1092
     11  F1         3.1930    1.3310   -1.9190 F       1  UNL1       -0.2068
     12  C7        -1.4520    0.8060   -0.4930 C.ar    1  UNL1        0.1033
     13  C8        -1.5530    1.5890    0.6310 C.ar    1  UNL1       -0.0359
     14  C9        -2.3830    1.2260    1.6970 C.ar    1  UNL1       -0.0578
     15  C10       -3.0930    0.0580    1.5800 C.ar    1  UNL1       -0.0307
     16  C11       -3.0060   -0.7380    0.4660 C.ar    1  UNL1        0.1360
     17  N2        -3.5940   -1.9200    0.1100 N.ar    1  UNL1       -0.0489
     18  O3        -3.1450   -2.2140   -1.0560 O.2     1  UNL1       -0.2415
     19  N3        -2.3000   -1.3080   -1.4980 N.ar    1  UNL1       -0.0470
     20  C12       -2.1820   -0.3540   -0.5650 C.ar    1  UNL1        0.1575
     21 H           0.5429   -1.7495   -0.1057 H       1  UNL1        0.0606
     22 H           2.1405   -2.2134    1.6182 H       1  UNL1        0.0617
     23 H           4.2524   -1.0191    1.7053 H       1  UNL1        0.0618
     24 H           4.7107    0.6470    0.0151 H       1  UNL1        0.0646
     25 H          -1.0059    2.4621    0.6903 H       1  UNL1        0.0637
     26 H          -2.4584    1.8154    2.5407 H       1  UNL1        0.0619
     27 H          -3.7117   -0.2308    2.3539 H       1  UNL1        0.0640
@<TRIPOS>UNITY_ATOM_ATTR
4 1
charge -1
@<TRIPOS>BOND
     1     1     2    2
     2     2     3    2
     3     2     4    1
     4     2    12    1
     5     4     5    1
     6     5     6   ar
     7     5    10   ar
     8     6     7   ar
     9     7     8   ar
    10     8     9   ar
    11     9    10   ar
    12    10    11    1
    13    12    13   ar
    14    12    20   ar
    15    13    14   ar
    16    14    15   ar
    17    15    16   ar
    18    16    17   ar
    19    16    20   ar
    20    17    18   ar
    21    18    19   ar
    22    19    20   ar
    23     6    21    1
    24     7    22    1
    25     8    23    1
    26     9    24    1
    27    13    25    1
    28    14    26    1
    29    15    27    1
@<TRIPOS>MOLECULE
../data/bude_mols_rdkit_confs_charged/molecule_37.pdb
 27 29 0 0 0
SMALL
GASTEIGER

@<TRIPOS>ATOM
      1  O1         0.1580    2.2390    0.9740 O.2     1  UNL1       -0.1841
      2  S1        -0.3440    0.8610    1.4820 S.O2    1  UNL1       -0.0567
      3  O2        -1.0580    1.1550    2.8190 O.2     1  UNL1       -0.1841
      4  N1         0.9840   -0.0500    1.8110 N.pl3   1  UNL1       -0.5345
      5  C1         2.0120   -0.4720    0.9850 C.ar    1  UNL1       -0.0933
      6  C2         3.0890    0.4240    0.7790 C.ar    1  UNL1       -0.0735
      7  C3         4.1050    0.0990   -0.0840 C.ar    1  UNL1       -0.0627
      8  C4         4.1420   -1.0850   -0.7860 C.ar    1  UNL1       -0.0591
      9  C5         3.0980   -1.9590   -0.5880 C.ar    1  UNL1       -0.0277
     10  C6         2.0480   -1.6520    0.2900 C.ar    1  UNL1        0.1092
     11  F1         1.1060   -2.6280    0.4700 F       1  UNL1       -0.2068
     12  C7        -1.5480    0.3870    0.3600 C.ar    1  UNL1        0.1033
     13  C8        -1.5960   -0.6970   -0.4480 C.ar    1  UNL1       -0.0359
     14  C9        -2.6680   -0.9240   -1.3240 C.ar    1  UNL1       -0.0578
     15  C10       -3.7160   -0.0460   -1.3940 C.ar    1  UNL1       -0.0307
     16  C11       -3.6940    1.0720   -0.5800 C.ar    1  UNL1        0.1360
     17  N2        -4.5700    2.1070   -0.4220 N.ar    1  UNL1       -0.0489
     18  O3        -4.0750    2.9070    0.4790 O.2     1  UNL1       -0.2415
     19  N3        -2.9340    2.4330    0.9000 N.ar    1  UNL1       -0.0470
     20  C12       -2.6470    1.2670    0.2580 C.ar    1  UNL1        0.1575
     21 H           3.1098    1.3258    1.2804 H       1  UNL1        0.0606
     22 H           4.8763    0.7724   -0.2128 H       1  UNL1        0.0617
     23 H           4.9168   -1.3065   -1.4307 H       1  UNL1        0.0618
     24 H           3.0872   -2.8577   -1.0952 H       1  UNL1        0.0646
     25 H          -0.8206   -1.3774   -0.4191 H       1  UNL1        0.0637
     26 H          -2.6665   -1.7640   -1.9236 H       1  UNL1        0.0619
     27 H          -4.5039   -0.2143   -2.0389 H       1  UNL1        0.0640
@<TRIPOS>UNITY_ATOM_ATTR
4 1
charge -1
@<TRIPOS>BOND
     1     1     2    2
     2     2     3    2
     3     2     4    1
     4     2    12    1
     5     4     5    1
     6     5     6   ar
     7     5    10   ar
     8     6     7   ar
     9     7     8   ar
    10     8     9   ar
    11     9    10   ar
    12    10    11    1
    13    12    13   ar
    14    12    20   ar
    15    13    14   ar
    16    14    15   ar
    17    15    16   ar
    18    16    17   ar
    19    16    20   ar
    20    17    18   ar
    21    18    19   ar
    22    19    20   ar
    23     6    21    1
    24     7    22    1
    25     8    23    1
    26     9    24    1
    27    13    25    1
    28    14    26    1
    29    15    27    1
@<TRIPOS>MOLECULE
../data/bude_mols_rdkit_confs_charged/molecule_37.pdb
 27 29 0 0 0
SMALL
GASTEIGER

@<TRIPOS>ATOM
      1  O1        -1.4600    1.8990    1.8180 O.2     1  UNL1       -0.1841
      2  S1        -0.8840    0.5180    1.9620 S.O2    1  UNL1       -0.0567
      3  O2        -1.2970    0.0390    3.3500 O.2     1  UNL1       -0.1841
      4  N1         0.8000    0.4780    1.9010 N.pl3   1  UNL1       -0.5345
      5  C1         1.6770    0.8060    0.8720 C.ar    1  UNL1       -0.0933
      6  C2         2.0990   -0.1420   -0.0380 C.ar    1  UNL1       -0.0735
      7  C3         2.9780    0.1550   -1.0630 C.ar    1  UNL1       -0.0627
      8  C4         3.4710    1.4340   -1.2110 C.ar    1  UNL1       -0.0591
      9  C5         3.0640    2.3970   -0.3160 C.ar    1  UNL1       -0.0277
     10  C6         2.1840    2.0900    0.7070 C.ar    1  UNL1        0.1092
     11  F1         1.8010    3.0430    1.5670 F       1  UNL1       -0.2068
     12  C7        -1.6680   -0.5330    0.8100 C.ar    1  UNL1        0.1033
     13  C8        -2.4660   -1.5870    1.2150 C.ar    1  UNL1       -0.0359
     14  C9        -3.0770   -2.4200    0.3030 C.ar    1  UNL1       -0.0578
     15  C10       -2.9250   -2.2470   -1.0540 C.ar    1  UNL1       -0.0307
     16  C11       -2.1320   -1.2000   -1.4740 C.ar    1  UNL1        0.1360
     17  N2        -1.7760   -0.7440   -2.6970 N.ar    1  UNL1       -0.0489
     18  O3        -1.0070    0.2880   -2.5420 O.2     1  UNL1       -0.2415
     19  N3        -0.8320    0.5430   -1.2980 N.ar    1  UNL1       -0.0470
     20  C12       -1.5120   -0.3540   -0.5540 C.ar    1  UNL1        0.1575
     21 H           1.7456   -1.1076    0.0499 H       1  UNL1        0.0606
     22 H           3.2669   -0.5853   -1.7214 H       1  UNL1        0.0617
     23 H           4.1281    1.6633   -1.9730 H       1  UNL1        0.0618
     24 H           3.4199    3.3612   -0.4090 H       1  UNL1        0.0646
     25 H          -2.6073   -1.7537    2.2236 H       1  UNL1        0.0637
     26 H          -3.6650   -3.1952    0.6471 H       1  UNL1        0.0619
     27 H          -3.3861   -2.8757   -1.7301 H       1  UNL1        0.0640
@<TRIPOS>UNITY_ATOM_ATTR
4 1
charge -1
@<TRIPOS>BOND
     1     1     2    2
     2     2     3    2
     3     2     4    1
     4     2    12    1
     5     4     5    1
     6     5     6   ar
     7     5    10   ar
     8     6     7   ar
     9     7     8   ar
    10     8     9   ar
    11     9    10   ar
    12    10    11    1
    13    12    13   ar
    14    12    20   ar
    15    13    14   ar
    16    14    15   ar
    17    15    16   ar
    18    16    17   ar
    19    16    20   ar
    20    17    18   ar
    21    18    19   ar
    22    19    20   ar
    23     6    21    1
    24     7    22    1
    25     8    23    1
    26     9    24    1
    27    13    25    1
    28    14    26    1
    29    15    27    1
@<TRIPOS>MOLECULE
../data/bude_mols_rdkit_confs_charged/molecule_37.pdb
 27 29 0 0 0
SMALL
GASTEIGER

@<TRIPOS>ATOM
      1  O1         0.1740    1.9840    0.5010 O.2     1  UNL1       -0.1841
      2  S1        -0.2740    1.1790   -0.7110 S.O2    1  UNL1       -0.0567
      3  O2        -0.6700    2.2200   -1.7480 O.2     1  UNL1       -0.1841
      4  N1         0.9960    0.1880   -1.2790 N.pl3   1  UNL1       -0.5345
      5  C1         2.1930   -0.0470   -0.5500 C.ar    1  UNL1       -0.0933
      6  C2         3.2950    0.8000   -0.7240 C.ar    1  UNL1       -0.0735
      7  C3         4.4360    0.5350    0.0040 C.ar    1  UNL1       -0.0627
      8  C4         4.5080   -0.5240    0.8770 C.ar    1  UNL1       -0.0591
      9  C5         3.4110   -1.3350    1.0240 C.ar    1  UNL1       -0.0277
     10  C6         2.2400   -1.1150    0.3190 C.ar    1  UNL1        0.1092
     11  F1         1.2160   -1.9640    0.5300 F       1  UNL1       -0.2068
     12  C7        -1.7290    0.2900   -0.3310 C.ar    1  UNL1        0.1033
     13  C8        -1.8750   -1.0590   -0.4850 C.ar    1  UNL1       -0.0359
     14  C9        -3.0680   -1.7180   -0.1670 C.ar    1  UNL1       -0.0578
     15  C10       -4.1320   -1.0010    0.3140 C.ar    1  UNL1       -0.0307
     16  C11       -3.9730    0.3610    0.4650 C.ar    1  UNL1        0.1360
     17  N2        -4.8160    1.3110    0.9040 N.ar    1  UNL1       -0.0489
     18  O3        -4.1940    2.4510    0.8590 O.2     1  UNL1       -0.2415
     19  N3        -2.9890    2.3290    0.4190 N.ar    1  UNL1       -0.0470
     20  C12       -2.7960    1.0190    0.1530 C.ar    1  UNL1        0.1575
     21 H           3.2543    1.5980   -1.3771 H       1  UNL1        0.0606
     22 H           5.2580    1.1485   -0.1099 H       1  UNL1        0.0617
     23 H           5.3714   -0.7059    1.4122 H       1  UNL1        0.0618
     24 H           3.4602   -2.1314    1.6785 H       1  UNL1        0.0646
     25 H          -1.0809   -1.6097   -0.8472 H       1  UNL1        0.0637
     26 H          -3.1460   -2.7392   -0.2942 H       1  UNL1        0.0619
     27 H          -5.0221   -1.4642    0.5551 H       1  UNL1        0.0640
@<TRIPOS>UNITY_ATOM_ATTR
4 1
charge -1
@<TRIPOS>BOND
     1     1     2    2
     2     2     3    2
     3     2     4    1
     4     2    12    1
     5     4     5    1
     6     5     6   ar
     7     5    10   ar
     8     6     7   ar
     9     7     8   ar
    10     8     9   ar
    11     9    10   ar
    12    10    11    1
    13    12    13   ar
    14    12    20   ar
    15    13    14   ar
    16    14    15   ar
    17    15    16   ar
    18    16    17   ar
    19    16    20   ar
    20    17    18   ar
    21    18    19   ar
    22    19    20   ar
    23     6    21    1
    24     7    22    1
    25     8    23    1
    26     9    24    1
    27    13    25    1
    28    14    26    1
    29    15    27    1
@<TRIPOS>MOLECULE
../data/bude_mols_rdkit_confs_charged/molecule_37.pdb
 27 29 0 0 0
SMALL
GASTEIGER

@<TRIPOS>ATOM
      1  O1         0.4330    0.1140   -2.5260 O.2     1  UNL1       -0.1841
      2  S1        -0.2600    1.0600   -1.5770 S.O2    1  UNL1       -0.0567
      3  O2        -0.9270    2.1070   -2.4210 O.2     1  UNL1       -0.1841
      4  N1         0.9500    1.7770   -0.5630 N.pl3   1  UNL1       -0.5345
      5  C1         1.7950    0.9410    0.2160 C.ar    1  UNL1       -0.0933
      6  C2         1.4510    0.5620    1.5020 C.ar    1  UNL1       -0.0735
      7  C3         2.2770   -0.2490    2.2510 C.ar    1  UNL1       -0.0627
      8  C4         3.4810   -0.7090    1.7270 C.ar    1  UNL1       -0.0591
      9  C5         3.8120   -0.3240    0.4450 C.ar    1  UNL1       -0.0277
     10  C6         2.9940    0.4890   -0.3170 C.ar    1  UNL1        0.1092
     11  F1         3.3440    0.8560   -1.5850 F       1  UNL1       -0.2068
     12  C7        -1.4180    0.1470   -0.6300 C.ar    1  UNL1        0.1033
     13  C8        -1.6160   -1.2120   -0.8240 C.ar    1  UNL1       -0.0359
     14  C9        -2.5320   -1.9270   -0.0730 C.ar    1  UNL1       -0.0578
     15  C10       -3.2880   -1.3130    0.9030 C.ar    1  UNL1       -0.0307
     16  C11       -3.0940    0.0380    1.0980 C.ar    1  UNL1        0.1360
     17  N2        -3.6390    0.9350    1.9360 N.ar    1  UNL1       -0.0489
     18  O3        -3.1060    2.0860    1.7160 O.2     1  UNL1       -0.2415
     19  N3        -2.2140    2.0180    0.7590 N.ar    1  UNL1       -0.0470
     20  C12       -2.1790    0.7470    0.3470 C.ar    1  UNL1        0.1575
     21 H           0.5611    0.8921    1.9071 H       1  UNL1        0.0606
     22 H           1.9999   -0.5171    3.2083 H       1  UNL1        0.0617
     23 H           4.1052   -1.3177    2.2791 H       1  UNL1        0.0618
     24 H           4.7019   -0.6545    0.0401 H       1  UNL1        0.0646
     25 H          -1.0662   -1.7022   -1.5468 H       1  UNL1        0.0637
     26 H          -2.6515   -2.9373   -0.2463 H       1  UNL1        0.0619
     27 H          -3.9718   -1.8435    1.4651 H       1  UNL1        0.0640
@<TRIPOS>UNITY_ATOM_ATTR
4 1
charge -1
@<TRIPOS>BOND
     1     1     2    2
     2     2     3    2
     3     2     4    1
     4     2    12    1
     5     4     5    1
     6     5     6   ar
     7     5    10   ar
     8     6     7   ar
     9     7     8   ar
    10     8     9   ar
    11     9    10   ar
    12    10    11    1
    13    12    13   ar
    14    12    20   ar
    15    13    14   ar
    16    14    15   ar
    17    15    16   ar
    18    16    17   ar
    19    16    20   ar
    20    17    18   ar
    21    18    19   ar
    22    19    20   ar
    23     6    21    1
    24     7    22    1
    25     8    23    1
    26     9    24    1
    27    13    25    1
    28    14    26    1
    29    15    27    1
@<TRIPOS>MOLECULE
../data/bude_mols_rdkit_confs_charged/molecule_37.pdb
 27 29 0 0 0
SMALL
GASTEIGER

@<TRIPOS>ATOM
      1  O1        -1.5200   -1.5240   -2.4720 O.2     1  UNL1       -0.1841
      2  S1        -0.6340   -0.7100   -1.5160 S.O2    1  UNL1       -0.0567
      3  O2        -0.2050    0.4770   -2.4150 O.2     1  UNL1       -0.1841
      4  N1         0.7170   -1.5640   -1.0770 N.pl3   1  UNL1       -0.5345
      5  C1         1.8520   -1.1070   -0.3780 C.ar    1  UNL1       -0.0933
      6  C2         2.0670   -1.1660    0.9730 C.ar    1  UNL1       -0.0735
      7  C3         3.2730   -0.7140    1.5280 C.ar    1  UNL1       -0.0627
      8  C4         4.2560   -0.2060    0.7060 C.ar    1  UNL1       -0.0591
      9  C5         4.0780   -0.1320   -0.6610 C.ar    1  UNL1       -0.0277
     10  C6         2.8960   -0.5770   -1.1740 C.ar    1  UNL1        0.1092
     11  F1         2.7160   -0.5040   -2.5350 F       1  UNL1       -0.2068
     12  C7        -1.6460   -0.0190   -0.2860 C.ar    1  UNL1        0.1033
     13  C8        -1.5290   -0.2050    1.0660 C.ar    1  UNL1       -0.0359
     14  C9        -2.3970    0.3670    2.0030 C.ar    1  UNL1       -0.0578
     15  C10       -3.4360    1.1650    1.5540 C.ar    1  UNL1       -0.0307
     16  C11       -3.5920    1.3780    0.2100 C.ar    1  UNL1        0.1360
     17  N2        -4.4850    2.0860   -0.4890 N.ar    1  UNL1       -0.0489
     18  O3        -4.1810    1.9560   -1.7710 O.2     1  UNL1       -0.2415
     19  N3        -3.1190    1.1830   -1.8920 N.ar    1  UNL1       -0.0470
     20  C12       -2.7230    0.8030   -0.6730 C.ar    1  UNL1        0.1575
     21 H           1.3330   -1.5475    1.5900 H       1  UNL1        0.0606
     22 H           3.4239   -0.7615    2.5478 H       1  UNL1        0.0617
     23 H           5.1414    0.1251    1.1201 H       1  UNL1        0.0618
     24 H           4.8158    0.2478   -1.2746 H       1  UNL1        0.0646
     25 H          -0.7593   -0.7989    1.4123 H       1  UNL1        0.0637
     26 H          -2.2650    0.1969    3.0123 H       1  UNL1        0.0619
     27 H          -4.0883    1.5962    2.2275 H       1  UNL1        0.0640
@<TRIPOS>UNITY_ATOM_ATTR
4 1
charge -1
@<TRIPOS>BOND
     1     1     2    2
     2     2     3    2
     3     2     4    1
     4     2    12    1
     5     4     5    1
     6     5     6   ar
     7     5    10   ar
     8     6     7   ar
     9     7     8   ar
    10     8     9   ar
    11     9    10   ar
    12    10    11    1
    13    12    13   ar
    14    12    20   ar
    15    13    14   ar
    16    14    15   ar
    17    15    16   ar
    18    16    17   ar
    19    16    20   ar
    20    17    18   ar
    21    18    19   ar
    22    19    20   ar
    23     6    21    1
    24     7    22    1
    25     8    23    1
    26     9    24    1
    27    13    25    1
    28    14    26    1
    29    15    27    1
@<TRIPOS>MOLECULE
../data/bude_mols_rdkit_confs_charged/molecule_37.pdb
 27 29 0 0 0
SMALL
GASTEIGER

@<TRIPOS>ATOM
      1  O1         0.3000    1.8130    2.2680 O.2     1  UNL1       -0.1841
      2  S1         0.0410    1.0080    1.0260 S.O2    1  UNL1       -0.0567
      3  O2        -0.1520    2.0230   -0.0930 O.2     1  UNL1       -0.1841
      4  N1         1.4490    0.1210    0.6650 N.pl3   1  UNL1       -0.5345
      5  C1         2.1440    0.1690   -0.5470 C.ar    1  UNL1       -0.0933
      6  C2         3.1570    1.0940   -0.7090 C.ar    1  UNL1       -0.0735
      7  C3         3.8770    1.1910   -1.8750 C.ar    1  UNL1       -0.0627
      8  C4         3.5850    0.3470   -2.9110 C.ar    1  UNL1       -0.0591
      9  C5         2.5740   -0.5800   -2.7580 C.ar    1  UNL1       -0.0277
     10  C6         1.8530   -0.6770   -1.5890 C.ar    1  UNL1        0.1092
     11  F1         0.8790   -1.6090   -1.5170 F       1  UNL1       -0.2068
     12  C7        -1.3400   -0.0200    1.1910 C.ar    1  UNL1        0.1033
     13  C8        -1.3130   -1.3940    1.0730 C.ar    1  UNL1       -0.0359
     14  C9        -2.4550   -2.1570    1.2210 C.ar    1  UNL1       -0.0578
     15  C10       -3.6750   -1.5810    1.4950 C.ar    1  UNL1       -0.0307
     16  C11       -3.7290   -0.2110    1.6180 C.ar    1  UNL1        0.1360
     17  N2        -4.7330    0.6460    1.8750 N.ar    1  UNL1       -0.0489
     18  O3        -4.2280    1.8420    1.8810 O.2     1  UNL1       -0.2415
     19  N3        -2.9510    1.8230    1.6420 N.ar    1  UNL1       -0.0470
     20  C12       -2.5890    0.5490    1.4700 C.ar    1  UNL1        0.1575
     21 H           3.3800    1.7324    0.0705 H       1  UNL1        0.0606
     22 H           4.6288    1.8919   -1.9681 H       1  UNL1        0.0617
     23 H           4.1137    0.4026   -3.7955 H       1  UNL1        0.0618
     24 H           2.3528   -1.2166   -3.5396 H       1  UNL1        0.0646
     25 H          -0.4171   -1.8638    0.8690 H       1  UNL1        0.0637
     26 H          -2.3922   -3.1825    1.1239 H       1  UNL1        0.0619
     27 H          -4.5231   -2.1586    1.6048 H       1  UNL1        0.0640
@<TRIPOS>UNITY_ATOM_ATTR
4 1
charge -1
@<TRIPOS>BOND
     1     1     2    2
     2     2     3    2
     3     2     4    1
     4     2    12    1
     5     4     5    1
     6     5     6   ar
     7     5    10   ar
     8     6     7   ar
     9     7     8   ar
    10     8     9   ar
    11     9    10   ar
    12    10    11    1
    13    12    13   ar
    14    12    20   ar
    15    13    14   ar
    16    14    15   ar
    17    15    16   ar
    18    16    17   ar
    19    16    20   ar
    20    17    18   ar
    21    18    19   ar
    22    19    20   ar
    23     6    21    1
    24     7    22    1
    25     8    23    1
    26     9    24    1
    27    13    25    1
    28    14    26    1
    29    15    27    1
@<TRIPOS>MOLECULE
../data/bude_mols_rdkit_confs_charged/molecule_37.pdb
 27 29 0 0 0
SMALL
GASTEIGER

@<TRIPOS>ATOM
      1  O1        -0.9620   -2.6750   -1.6880 O.2     1  UNL1       -0.1841
      2  S1        -0.2830   -1.7070   -0.6840 S.O2    1  UNL1       -0.0567
      3  O2         0.0850   -2.6000    0.5270 O.2     1  UNL1       -0.1841
      4  N1         1.0220   -0.9610   -1.3390 N.pl3   1  UNL1       -0.5345
      5  C1         2.0130   -0.0790   -0.9960 C.ar    1  UNL1       -0.0933
      6  C2         1.9390    1.2700   -1.1960 C.ar    1  UNL1       -0.0735
      7  C3         3.0020    2.1220   -0.8780 C.ar    1  UNL1       -0.0627
      8  C4         4.1600    1.5990   -0.3500 C.ar    1  UNL1       -0.0591
      9  C5         4.2780    0.2610   -0.1340 C.ar    1  UNL1       -0.0277
     10  C6         3.2330   -0.5640   -0.4480 C.ar    1  UNL1        0.1092
     11  F1         3.3170   -1.8890   -0.2480 F       1  UNL1       -0.2068
     12  C7        -1.5700   -0.6940   -0.1230 C.ar    1  UNL1        0.1033
     13  C8        -1.6270    0.6510   -0.2020 C.ar    1  UNL1       -0.0359
     14  C9        -2.7310    1.3660    0.2830 C.ar    1  UNL1       -0.0578
     15  C10       -3.7990    0.7290    0.8590 C.ar    1  UNL1       -0.0307
     16  C11       -3.7690   -0.6280    0.9520 C.ar    1  UNL1        0.1360
     17  N2        -4.6160   -1.5180    1.4390 N.ar    1  UNL1       -0.0489
     18  O3        -4.0970   -2.7060    1.2790 O.2     1  UNL1       -0.2415
     19  N3        -2.9380   -2.6080    0.7020 N.ar    1  UNL1       -0.0470
     20  C12       -2.6860   -1.3130    0.4740 C.ar    1  UNL1        0.1575
     21 H           1.0752    1.6719   -1.5926 H       1  UNL1        0.0606
     22 H           2.9181    3.1380   -1.0387 H       1  UNL1        0.0617
     23 H           4.9451    2.2266   -0.1160 H       1  UNL1        0.0618
     24 H           5.1476   -0.1279    0.2630 H       1  UNL1        0.0646
     25 H          -0.8406    1.1652   -0.6289 H       1  UNL1        0.0637
     26 H          -2.7397    2.3950    0.2045 H       1  UNL1        0.0619
     27 H          -4.6062    1.2655    1.2135 H       1  UNL1        0.0640
@<TRIPOS>UNITY_ATOM_ATTR
4 1
charge -1
@<TRIPOS>BOND
     1     1     2    2
     2     2     3    2
     3     2     4    1
     4     2    12    1
     5     4     5    1
     6     5     6   ar
     7     5    10   ar
     8     6     7   ar
     9     7     8   ar
    10     8     9   ar
    11     9    10   ar
    12    10    11    1
    13    12    13   ar
    14    12    20   ar
    15    13    14   ar
    16    14    15   ar
    17    15    16   ar
    18    16    17   ar
    19    16    20   ar
    20    17    18   ar
    21    18    19   ar
    22    19    20   ar
    23     6    21    1
    24     7    22    1
    25     8    23    1
    26     9    24    1
    27    13    25    1
    28    14    26    1
    29    15    27    1
@<TRIPOS>MOLECULE
../data/bude_mols_rdkit_confs_charged/molecule_37.pdb
 27 29 0 0 0
SMALL
GASTEIGER

@<TRIPOS>ATOM
      1  O1        -1.4680   -3.0160    1.1960 O.2     1  UNL1       -0.1841
      2  S1        -0.5570   -2.0280    0.5110 S.O2    1  UNL1       -0.0567
      3  O2         0.0900   -2.8020   -0.6320 O.2     1  UNL1       -0.1841
      4  N1         0.6900   -1.5540    1.5730 N.pl3   1  UNL1       -0.5345
      5  C1         1.7150   -0.7050    1.0970 C.ar    1  UNL1       -0.0933
      6  C2         2.8590   -1.2240    0.5220 C.ar    1  UNL1       -0.0735
      7  C3         3.8660   -0.3800    0.0440 C.ar    1  UNL1       -0.0627
      8  C4         3.6800    0.9810    0.1640 C.ar    1  UNL1       -0.0591
      9  C5         2.5520    1.5330    0.7310 C.ar    1  UNL1       -0.0277
     10  C6         1.5620    0.6560    1.2010 C.ar    1  UNL1        0.1092
     11  F1         0.4640    1.2150    1.7640 F       1  UNL1       -0.2068
     12  C7        -1.5210   -0.7480   -0.1170 C.ar    1  UNL1        0.1033
     13  C8        -1.5430   -0.5390   -1.4810 C.ar    1  UNL1       -0.0359
     14  C9        -2.2940    0.4720   -2.0650 C.ar    1  UNL1       -0.0578
     15  C10       -3.0500    1.3030   -1.2630 C.ar    1  UNL1       -0.0307
     16  C11       -3.0220    1.0880    0.0960 C.ar    1  UNL1        0.1360
     17  N2        -3.6320    1.7100    1.1150 N.ar    1  UNL1       -0.0489
     18  O3        -3.2880    1.1350    2.2350 O.2     1  UNL1       -0.2415
     19  N3        -2.4690    0.1480    1.9960 N.ar    1  UNL1       -0.0470
     20  C12       -2.2700    0.0780    0.6660 C.ar    1  UNL1        0.1575
     21 H           2.9716   -2.2469    0.4444 H       1  UNL1        0.0606
     22 H           4.7223   -0.7639   -0.3855 H       1  UNL1        0.0617
     23 H           4.4170    1.6131   -0.1857 H       1  UNL1        0.0618
     24 H           2.4390    2.5559    0.8075 H       1  UNL1        0.0646
     25 H          -0.9813   -1.1561   -2.0883 H       1  UNL1        0.0637
     26 H          -2.2871    0.6010   -3.0889 H       1  UNL1        0.0619
     27 H          -3.6186    2.0620   -1.6699 H       1  UNL1        0.0640
@<TRIPOS>UNITY_ATOM_ATTR
4 1
charge -1
@<TRIPOS>BOND
     1     1     2    2
     2     2     3    2
     3     2     4    1
     4     2    12    1
     5     4     5    1
     6     5     6   ar
     7     5    10   ar
     8     6     7   ar
     9     7     8   ar
    10     8     9   ar
    11     9    10   ar
    12    10    11    1
    13    12    13   ar
    14    12    20   ar
    15    13    14   ar
    16    14    15   ar
    17    15    16   ar
    18    16    17   ar
    19    16    20   ar
    20    17    18   ar
    21    18    19   ar
    22    19    20   ar
    23     6    21    1
    24     7    22    1
    25     8    23    1
    26     9    24    1
    27    13    25    1
    28    14    26    1
    29    15    27    1
@<TRIPOS>MOLECULE
../data/bude_mols_rdkit_confs_charged/molecule_37.pdb
 27 29 0 0 0
SMALL
GASTEIGER

@<TRIPOS>ATOM
      1  O1         0.1040   -2.3820   -0.3550 O.2     1  UNL1       -0.1841
      2  S1        -0.3450   -1.1960   -1.2380 S.O2    1  UNL1       -0.0567
      3  O2        -1.0600   -1.8260   -2.4300 O.2     1  UNL1       -0.1841
      4  N1         1.0370   -0.3830   -1.6910 N.pl3   1  UNL1       -0.5345
      5  C1         1.9990    0.1750   -0.8330 C.ar    1  UNL1       -0.0933
      6  C2         2.0640    1.4420   -0.3580 C.ar    1  UNL1       -0.0735
      7  C3         3.1100    1.8740    0.4610 C.ar    1  UNL1       -0.0627
      8  C4         4.1170    0.9960    0.8050 C.ar    1  UNL1       -0.0591
      9  C5         4.0890   -0.3190    0.3350 C.ar    1  UNL1       -0.0277
     10  C6         3.0460   -0.7000   -0.4640 C.ar    1  UNL1        0.1092
     11  F1         3.0430   -1.9910   -0.9090 F       1  UNL1       -0.2068
     12  C7        -1.5570   -0.3840   -0.3280 C.ar    1  UNL1        0.1033
     13  C8        -1.5930    0.9290    0.0210 C.ar    1  UNL1       -0.0359
     14  C9        -2.6570    1.4600    0.7530 C.ar    1  UNL1       -0.0578
     15  C10       -3.6940    0.6560    1.1340 C.ar    1  UNL1       -0.0307
     16  C11       -3.6970   -0.6730    0.8030 C.ar    1  UNL1        0.1360
     17  N2        -4.5740   -1.6810    1.0430 N.ar    1  UNL1       -0.0489
     18  O3        -4.0790   -2.7470    0.4970 O.2     1  UNL1       -0.2415
     19  N3        -2.9420   -2.4920   -0.0780 N.ar    1  UNL1       -0.0470
     20  C12       -2.6400   -1.1750    0.0830 C.ar    1  UNL1        0.1575
     21 H           1.3175    2.1089   -0.6090 H       1  UNL1        0.0606
     22 H           3.1294    2.8460    0.8073 H       1  UNL1        0.0617
     23 H           4.8915    1.3110    1.4100 H       1  UNL1        0.0618
     24 H           4.8360   -0.9861    0.5841 H       1  UNL1        0.0646
     25 H          -0.8166    1.5475   -0.2613 H       1  UNL1        0.0637
     26 H          -2.6601    2.4604    1.0064 H       1  UNL1        0.0619
     27 H          -4.4791    1.0522    1.6740 H       1  UNL1        0.0640
@<TRIPOS>UNITY_ATOM_ATTR
4 1
charge -1
@<TRIPOS>BOND
     1     1     2    2
     2     2     3    2
     3     2     4    1
     4     2    12    1
     5     4     5    1
     6     5     6   ar
     7     5    10   ar
     8     6     7   ar
     9     7     8   ar
    10     8     9   ar
    11     9    10   ar
    12    10    11    1
    13    12    13   ar
    14    12    20   ar
    15    13    14   ar
    16    14    15   ar
    17    15    16   ar
    18    16    17   ar
    19    16    20   ar
    20    17    18   ar
    21    18    19   ar
    22    19    20   ar
    23     6    21    1
    24     7    22    1
    25     8    23    1
    26     9    24    1
    27    13    25    1
    28    14    26    1
    29    15    27    1
@<TRIPOS>MOLECULE
../data/bude_mols_rdkit_confs_charged/molecule_37.pdb
 27 29 0 0 0
SMALL
GASTEIGER

@<TRIPOS>ATOM
      1  O1        -1.1820    1.0600    2.9040 O.2     1  UNL1       -0.1841
      2  S1        -0.4740    0.2060    1.8200 S.O2    1  UNL1       -0.0567
      3  O2        -0.3600   -1.1560    2.5240 O.2     1  UNL1       -0.1841
      4  N1         0.9770    0.8370    1.3940 N.pl3   1  UNL1       -0.5345
      5  C1         2.0570    0.5830    0.5930 C.ar    1  UNL1       -0.0933
      6  C2         2.1950    1.0790   -0.6710 C.ar    1  UNL1       -0.0735
      7  C3         3.3330    0.8500   -1.4360 C.ar    1  UNL1       -0.0627
      8  C4         4.3580    0.1040   -0.9140 C.ar    1  UNL1       -0.0591
      9  C5         4.2730   -0.4210    0.3570 C.ar    1  UNL1       -0.0277
     10  C6         3.1470   -0.1800    1.0800 C.ar    1  UNL1        0.1092
     11  F1         3.0020   -0.6750    2.3540 F       1  UNL1       -0.2068
     12  C7        -1.6550    0.0090    0.5560 C.ar    1  UNL1        0.1033
     13  C8        -1.4960    0.3310   -0.7490 C.ar    1  UNL1       -0.0359
     14  C9        -2.4950    0.1440   -1.7080 C.ar    1  UNL1       -0.0578
     15  C10       -3.7070   -0.3920   -1.3350 C.ar    1  UNL1       -0.0307
     16  C11       -3.8660   -0.7200   -0.0040 C.ar    1  UNL1        0.1360
     17  N2        -4.9470   -1.2590    0.6340 N.ar    1  UNL1       -0.0489
     18  O3        -4.6040   -1.3760    1.8710 O.2     1  UNL1       -0.2415
     19  N3        -3.3910   -0.9590    2.0900 N.ar    1  UNL1       -0.0470
     20  C12       -2.8990   -0.5400    0.9320 C.ar    1  UNL1        0.1575
     21 H           1.4293    1.6427   -1.0721 H       1  UNL1        0.0606
     22 H           3.4056    1.2385   -2.3893 H       1  UNL1        0.0617
     23 H           5.2038   -0.0664   -1.4802 H       1  UNL1        0.0618
     24 H           5.0442   -0.9828    0.7502 H       1  UNL1        0.0646
     25 H          -0.5946    0.7335   -1.0499 H       1  UNL1        0.0637
     26 H          -2.3250    0.4065   -2.6915 H       1  UNL1        0.0619
     27 H          -4.4635   -0.5419   -2.0207 H       1  UNL1        0.0640
@<TRIPOS>UNITY_ATOM_ATTR
4 1
charge -1
@<TRIPOS>BOND
     1     1     2    2
     2     2     3    2
     3     2     4    1
     4     2    12    1
     5     4     5    1
     6     5     6   ar
     7     5    10   ar
     8     6     7   ar
     9     7     8   ar
    10     8     9   ar
    11     9    10   ar
    12    10    11    1
    13    12    13   ar
    14    12    20   ar
    15    13    14   ar
    16    14    15   ar
    17    15    16   ar
    18    16    17   ar
    19    16    20   ar
    20    17    18   ar
    21    18    19   ar
    22    19    20   ar
    23     6    21    1
    24     7    22    1
    25     8    23    1
    26     9    24    1
    27    13    25    1
    28    14    26    1
    29    15    27    1
