@<TRIPOS>MOLECULE
../data/bude_mols_rdkit_confs2/molecule_73.pdb
 38 41 0 0 0
SMALL
GASTEIGER

@<TRIPOS>ATOM
      1  N1        -4.7980    0.0440    1.4560 N.pl3   1  UNL1       -0.3577
      2  C1        -4.0470    0.2780    0.2610 C.ar    1  UNL1        0.0278
      3  C2        -4.6750    0.5750   -0.9300 C.ar    1  UNL1       -0.0408
      4  C3        -3.9440    0.8010   -2.0720 C.ar    1  UNL1       -0.0600
      5  C4        -2.5720    0.7250   -2.0000 C.ar    1  UNL1       -0.0614
      6  C5        -1.9350    0.4220   -0.7840 C.ar    1  UNL1       -0.0568
      7  C6        -2.6450    0.1920    0.3660 C.ar    1  UNL1       -0.0264
      8  C7        -2.0970   -0.1400    1.6860 C.3     1  UNL1       -0.0205
      9  C8        -0.6460   -0.1140    1.8770 C.3     1  UNL1       -0.0040
     10  C9         0.0680   -1.0630    0.9870 C.ar    1  UNL1        0.0708
     11  N2        -0.3350   -2.2310    0.4810 N.ar    1  UNL1       -0.1777
     12  N3         0.5820   -2.7880   -0.2940 N.ar    1  UNL1       -0.2767
     13  C10        1.6450   -1.9570   -0.3070 C.ar    1  UNL1        0.0660
     14  C11        2.8910   -1.9880   -0.9150 C.ar    1  UNL1       -0.0356
     15  C12        3.8400   -0.9800   -0.7550 C.ar    1  UNL1       -0.0490
     16  C13        3.5300    0.1060    0.0470 C.ar    1  UNL1        0.0212
     17  C14        4.5120    1.1640    0.2320 C.ar    1  UNL1        0.1794
     18  N4         5.7440    1.2730   -0.2790 N.ar    1  UNL1       -0.1084
     19  N5         6.3270    2.3860    0.1290 N.ar    1  UNL1       -0.0229
     20  N6         5.4390    2.9940    0.9190 N.ar    1  UNL1       -0.0464
     21  N7         4.3400    2.2800    0.9970 N.ar    1  UNL1       -0.2388
     22  C15        2.2870    0.1450    0.6570 C.ar    1  UNL1       -0.0401
     23  C16        1.3650   -0.8660    0.4830 C.ar    1  UNL1        0.0233
     24 H          -5.7811    0.0921    1.4369 H       1  UNL1        0.1423
     25 H          -4.3317   -0.1651    2.2974 H       1  UNL1        0.1423
     26 H          -5.7051    0.6282   -0.9645 H       1  UNL1        0.0636
     27 H          -4.4138    1.0228   -2.9637 H       1  UNL1        0.0618
     28 H          -2.0055    0.8919   -2.8463 H       1  UNL1        0.0618
     29 H          -0.9046    0.3713   -0.7562 H       1  UNL1        0.0621
     30 H          -2.4271   -1.1298    1.9230 H       1  UNL1        0.0317
     31 H          -2.4540    0.6461    2.3181 H       1  UNL1        0.0317
     32 H          -0.4303   -0.3700    2.8933 H       1  UNL1        0.0332
     33 H          -0.3068    0.8717    1.6356 H       1  UNL1        0.0332
     34 H           0.5034   -3.6459   -0.7706 H       1  UNL1        0.1889
     35 H           3.1264   -2.7949   -1.5137 H       1  UNL1        0.0639
     36 H           4.7566   -1.0415   -1.2253 H       1  UNL1        0.0625
     37 H           3.5351    2.5093    1.5154 H       1  UNL1        0.1923
     38 H           2.0450    0.9498    1.2560 H       1  UNL1        0.0632
@<TRIPOS>BOND
     1     1     2    1
     2     2     3   ar
     3     2     7   ar
     4     3     4   ar
     5     4     5   ar
     6     5     6   ar
     7     6     7   ar
     8     7     8    1
     9     8     9    1
    10     9    10    1
    11    10    11   ar
    12    10    23   ar
    13    11    12   ar
    14    12    13   ar
    15    13    14   ar
    16    13    23   ar
    17    14    15   ar
    18    15    16   ar
    19    16    17    1
    20    16    22   ar
    21    17    18   ar
    22    17    21   ar
    23    18    19   ar
    24    19    20   ar
    25    20    21   ar
    26    22    23   ar
    27     1    24    1
    28     1    25    1
    29     3    26    1
    30     4    27    1
    31     5    28    1
    32     6    29    1
    33     8    30    1
    34     8    31    1
    35     9    32    1
    36     9    33    1
    37    12    34    1
    38    14    35    1
    39    15    36    1
    40    21    37    1
    41    22    38    1
@<TRIPOS>MOLECULE
../data/bude_mols_rdkit_confs2/molecule_73.pdb
 38 41 0 0 0
SMALL
GASTEIGER

@<TRIPOS>ATOM
      1  N1        -4.0970    0.8800   -0.3700 N.pl3   1  UNL1       -0.3577
      2  C1        -3.7740   -0.3570    0.2460 C.ar    1  UNL1        0.0278
      3  C2        -4.8070   -1.1270    0.7900 C.ar    1  UNL1       -0.0408
      4  C3        -4.4800   -2.3280    1.3800 C.ar    1  UNL1       -0.0600
      5  C4        -3.1650   -2.7340    1.4190 C.ar    1  UNL1       -0.0614
      6  C5        -2.1420   -1.9910    0.8900 C.ar    1  UNL1       -0.0568
      7  C6        -2.4510   -0.7820    0.2940 C.ar    1  UNL1       -0.0264
      8  C7        -1.3780    0.0480   -0.2840 C.3     1  UNL1       -0.0205
      9  C8        -0.9760    1.2220    0.5740 C.3     1  UNL1       -0.0040
     10  C9         0.1130    1.9440   -0.1720 C.ar    1  UNL1        0.0708
     11  N2         0.0700    3.0770   -0.8630 N.ar    1  UNL1       -0.1777
     12  N3         1.2410    3.3790   -1.3780 N.ar    1  UNL1       -0.2767
     13  C10        2.0900    2.3990   -1.0070 C.ar    1  UNL1        0.0660
     14  C11        3.4330    2.1560   -1.2330 C.ar    1  UNL1       -0.0356
     15  C12        4.0700    1.0480   -0.7240 C.ar    1  UNL1       -0.0490
     16  C13        3.3980    0.1100    0.0470 C.ar    1  UNL1        0.0212
     17  C14        4.0750   -1.0630    0.5860 C.ar    1  UNL1        0.1794
     18  N4         5.3570   -1.4050    0.4280 N.ar    1  UNL1       -0.1084
     19  N5         5.5780   -2.5540    1.0840 N.ar    1  UNL1       -0.0229
     20  N6         4.4300   -2.9340    1.6570 N.ar    1  UNL1       -0.0464
     21  N7         3.5380   -2.0270    1.3470 N.ar    1  UNL1       -0.2388
     22  C15        2.0550    0.3480    0.2760 C.ar    1  UNL1       -0.0401
     23  C16        1.4240    1.4600   -0.2380 C.ar    1  UNL1        0.0233
     24 H          -5.0331    1.1828   -0.4051 H       1  UNL1        0.1423
     25 H          -3.3850    1.4353   -0.7623 H       1  UNL1        0.1423
     26 H          -5.7865   -0.8045    0.7505 H       1  UNL1        0.0636
     27 H          -5.2177   -2.9211    1.7911 H       1  UNL1        0.0618
     28 H          -2.9399   -3.6366    1.8658 H       1  UNL1        0.0618
     29 H          -1.1666   -2.3250    0.9353 H       1  UNL1        0.0621
     30 H          -1.7144    0.4219   -1.2284 H       1  UNL1        0.0317
     31 H          -0.5158   -0.5797   -0.3708 H       1  UNL1        0.0317
     32 H          -0.6119    0.8805    1.5204 H       1  UNL1        0.0332
     33 H          -1.8090    1.8668    0.7620 H       1  UNL1        0.0332
     34 H           1.4563    4.1670   -1.9275 H       1  UNL1        0.1889
     35 H           3.9738    2.8267   -1.8011 H       1  UNL1        0.0639
     36 H           5.0738    0.9108   -0.9206 H       1  UNL1        0.0625
     37 H           2.5968   -2.0500    1.6349 H       1  UNL1        0.1923
     38 H           1.5135   -0.3219    0.8443 H       1  UNL1        0.0632
@<TRIPOS>BOND
     1     1     2    1
     2     2     3   ar
     3     2     7   ar
     4     3     4   ar
     5     4     5   ar
     6     5     6   ar
     7     6     7   ar
     8     7     8    1
     9     8     9    1
    10     9    10    1
    11    10    11   ar
    12    10    23   ar
    13    11    12   ar
    14    12    13   ar
    15    13    14   ar
    16    13    23   ar
    17    14    15   ar
    18    15    16   ar
    19    16    17    1
    20    16    22   ar
    21    17    18   ar
    22    17    21   ar
    23    18    19   ar
    24    19    20   ar
    25    20    21   ar
    26    22    23   ar
    27     1    24    1
    28     1    25    1
    29     3    26    1
    30     4    27    1
    31     5    28    1
    32     6    29    1
    33     8    30    1
    34     8    31    1
    35     9    32    1
    36     9    33    1
    37    12    34    1
    38    14    35    1
    39    15    36    1
    40    21    37    1
    41    22    38    1
@<TRIPOS>MOLECULE
../data/bude_mols_rdkit_confs2/molecule_73.pdb
 38 41 0 0 0
SMALL
GASTEIGER

@<TRIPOS>ATOM
      1  N1        -4.6260   -1.4340    0.2710 N.pl3   1  UNL1       -0.3577
      2  C1        -4.3210   -0.0700    0.0580 C.ar    1  UNL1        0.0278
      3  C2        -5.3430    0.8330    0.2600 C.ar    1  UNL1       -0.0408
      4  C3        -5.0430    2.1660    0.0520 C.ar    1  UNL1       -0.0600
      5  C4        -3.7620    2.5620   -0.3410 C.ar    1  UNL1       -0.0614
      6  C5        -2.7450    1.6510   -0.5410 C.ar    1  UNL1       -0.0568
      7  C6        -3.0340    0.3210   -0.3370 C.ar    1  UNL1       -0.0264
      8  C7        -1.9970   -0.7150   -0.5050 C.3     1  UNL1       -0.0205
      9  C8        -0.6040   -0.2010   -0.3330 C.3     1  UNL1       -0.0040
     10  C9         0.3830   -1.2990   -0.4650 C.ar    1  UNL1        0.0708
     11  N2         0.2330   -2.6080   -0.6950 N.ar    1  UNL1       -0.1777
     12  N3         1.4210   -3.2070   -0.6910 N.ar    1  UNL1       -0.2767
     13  C10        2.3890   -2.2960   -0.4560 C.ar    1  UNL1        0.0660
     14  C11        3.7640   -2.3520   -0.3390 C.ar    1  UNL1       -0.0356
     15  C12        4.5390   -1.2140   -0.0790 C.ar    1  UNL1       -0.0490
     16  C13        3.8600   -0.0270    0.0550 C.ar    1  UNL1        0.0212
     17  C14        4.6360    1.1830    0.3460 C.ar    1  UNL1        0.1794
     18  N4         5.9520    1.2610    0.6190 N.ar    1  UNL1       -0.1084
     19  N5         6.2070    2.5340    0.8410 N.ar    1  UNL1       -0.0229
     20  N6         5.0960    3.2700    0.7180 N.ar    1  UNL1       -0.0464
     21  N7         4.1280    2.4260    0.4110 N.ar    1  UNL1       -0.2388
     22  C15        2.4910    0.0730   -0.0540 C.ar    1  UNL1       -0.0401
     23  C16        1.7530   -1.0860   -0.3120 C.ar    1  UNL1        0.0233
     24 H          -5.5330   -1.6981    0.5483 H       1  UNL1        0.1423
     25 H          -3.9314   -2.1197    0.1420 H       1  UNL1        0.1423
     26 H          -6.2849    0.5288    0.5519 H       1  UNL1        0.0636
     27 H          -5.7760    2.8794    0.1890 H       1  UNL1        0.0618
     28 H          -3.5707    3.5657   -0.4860 H       1  UNL1        0.0618
     29 H          -1.8031    1.9556   -0.8326 H       1  UNL1        0.0621
     30 H          -2.0865   -1.1268   -1.4885 H       1  UNL1        0.0317
     31 H          -2.1579   -1.4467    0.2589 H       1  UNL1        0.0317
     32 H          -0.5103    0.2400    0.6374 H       1  UNL1        0.0332
     33 H          -0.4109    0.5266   -1.0934 H       1  UNL1        0.0332
     34 H           1.5713   -4.1689   -0.8373 H       1  UNL1        0.1889
     35 H           4.2367   -3.2630   -0.4467 H       1  UNL1        0.0639
     36 H           5.5661   -1.2647    0.0073 H       1  UNL1        0.0625
     37 H           3.1865    2.6679    0.2549 H       1  UNL1        0.1923
     38 H           2.0194    0.9848    0.0526 H       1  UNL1        0.0632
@<TRIPOS>BOND
     1     1     2    1
     2     2     3   ar
     3     2     7   ar
     4     3     4   ar
     5     4     5   ar
     6     5     6   ar
     7     6     7   ar
     8     7     8    1
     9     8     9    1
    10     9    10    1
    11    10    11   ar
    12    10    23   ar
    13    11    12   ar
    14    12    13   ar
    15    13    14   ar
    16    13    23   ar
    17    14    15   ar
    18    15    16   ar
    19    16    17    1
    20    16    22   ar
    21    17    18   ar
    22    17    21   ar
    23    18    19   ar
    24    19    20   ar
    25    20    21   ar
    26    22    23   ar
    27     1    24    1
    28     1    25    1
    29     3    26    1
    30     4    27    1
    31     5    28    1
    32     6    29    1
    33     8    30    1
    34     8    31    1
    35     9    32    1
    36     9    33    1
    37    12    34    1
    38    14    35    1
    39    15    36    1
    40    21    37    1
    41    22    38    1
@<TRIPOS>MOLECULE
../data/bude_mols_rdkit_confs2/molecule_73.pdb
 38 41 0 0 0
SMALL
GASTEIGER

@<TRIPOS>ATOM
      1  N1        -2.9890    2.0100   -1.4440 N.pl3   1  UNL1       -0.3577
      2  C1        -3.4390    1.1830   -0.3890 C.ar    1  UNL1        0.0278
      3  C2        -4.6160    1.5680    0.2250 C.ar    1  UNL1       -0.0408
      4  C3        -5.1240    0.8260    1.2560 C.ar    1  UNL1       -0.0600
      5  C4        -4.4710   -0.2890    1.6750 C.ar    1  UNL1       -0.0614
      6  C5        -3.2860   -0.6740    1.0550 C.ar    1  UNL1       -0.0568
      7  C6        -2.7500    0.0520    0.0150 C.ar    1  UNL1       -0.0264
      8  C7        -1.5100   -0.2980   -0.6760 C.3     1  UNL1       -0.0205
      9  C8        -0.9110   -1.5550   -0.0810 C.3     1  UNL1       -0.0040
     10  C9         0.3580   -1.9190   -0.7820 C.ar    1  UNL1        0.0708
     11  N2         0.5850   -2.8870   -1.6900 N.ar    1  UNL1       -0.1777
     12  N3         1.8650   -2.8620   -2.0580 N.ar    1  UNL1       -0.2767
     13  C10        2.5230   -1.8850   -1.4120 C.ar    1  UNL1        0.0660
     14  C11        3.8240   -1.4260   -1.4110 C.ar    1  UNL1       -0.0356
     15  C12        4.1570   -0.3540   -0.5840 C.ar    1  UNL1       -0.0490
     16  C13        3.2310    0.2560    0.2280 C.ar    1  UNL1        0.0212
     17  C14        3.5810    1.3870    1.1000 C.ar    1  UNL1        0.1794
     18  N4         2.8250    2.0790    1.9300 N.ar    1  UNL1       -0.1084
     19  N5         3.5580    3.0050    2.5090 N.ar    1  UNL1       -0.0229
     20  N6         4.7880    2.9050    2.0460 N.ar    1  UNL1       -0.0464
     21  N7         4.8240    1.9120    1.1760 N.ar    1  UNL1       -0.2388
     22  C15        1.9370   -0.2170    0.2120 C.ar    1  UNL1       -0.0401
     23  C16        1.5750   -1.2870   -0.6050 C.ar    1  UNL1        0.0233
     24 H          -3.5081    2.8060   -1.7012 H       1  UNL1        0.1423
     25 H          -2.1566    1.7898   -1.9214 H       1  UNL1        0.1423
     26 H          -5.1115    2.4151   -0.0943 H       1  UNL1        0.0636
     27 H          -6.0026    1.1131    1.7150 H       1  UNL1        0.0618
     28 H          -4.8532   -0.8500    2.4523 H       1  UNL1        0.0618
     29 H          -2.7981   -1.5226    1.3820 H       1  UNL1        0.0621
     30 H          -0.8117    0.5066   -0.5765 H       1  UNL1        0.0317
     31 H          -1.7257   -0.4718   -1.7095 H       1  UNL1        0.0317
     32 H          -1.6104   -2.3586   -0.1810 H       1  UNL1        0.0332
     33 H          -0.6946   -1.3772    0.9517 H       1  UNL1        0.0332
     34 H           2.2722   -3.4744   -2.7125 H       1  UNL1        0.1889
     35 H           4.5376   -1.8680   -2.0113 H       1  UNL1        0.0639
     36 H           5.1292   -0.0078   -0.5815 H       1  UNL1        0.0625
     37 H           5.6142    1.6087    0.6732 H       1  UNL1        0.1923
     38 H           1.2256    0.2272    0.8134 H       1  UNL1        0.0632
@<TRIPOS>BOND
     1     1     2    1
     2     2     3   ar
     3     2     7   ar
     4     3     4   ar
     5     4     5   ar
     6     5     6   ar
     7     6     7   ar
     8     7     8    1
     9     8     9    1
    10     9    10    1
    11    10    11   ar
    12    10    23   ar
    13    11    12   ar
    14    12    13   ar
    15    13    14   ar
    16    13    23   ar
    17    14    15   ar
    18    15    16   ar
    19    16    17    1
    20    16    22   ar
    21    17    18   ar
    22    17    21   ar
    23    18    19   ar
    24    19    20   ar
    25    20    21   ar
    26    22    23   ar
    27     1    24    1
    28     1    25    1
    29     3    26    1
    30     4    27    1
    31     5    28    1
    32     6    29    1
    33     8    30    1
    34     8    31    1
    35     9    32    1
    36     9    33    1
    37    12    34    1
    38    14    35    1
    39    15    36    1
    40    21    37    1
    41    22    38    1
@<TRIPOS>MOLECULE
../data/bude_mols_rdkit_confs2/molecule_73.pdb
 38 41 0 0 0
SMALL
GASTEIGER

@<TRIPOS>ATOM
      1  N1        -3.9820   -0.6870    1.8280 N.pl3   1  UNL1       -0.3577
      2  C1        -3.5800   -0.6530    0.4700 C.ar    1  UNL1        0.0278
      3  C2        -4.5450   -0.3910   -0.4660 C.ar    1  UNL1       -0.0408
      4  C3        -4.1850   -0.3510   -1.7930 C.ar    1  UNL1       -0.0600
      5  C4        -2.8890   -0.5710   -2.1500 C.ar    1  UNL1       -0.0614
      6  C5        -1.9270   -0.8370   -1.1720 C.ar    1  UNL1       -0.0568
      7  C6        -2.2600   -0.8830    0.1670 C.ar    1  UNL1       -0.0264
      8  C7        -1.2410   -1.1620    1.1640 C.3     1  UNL1       -0.0205
      9  C8        -0.7610    0.0240    1.9500 C.3     1  UNL1       -0.0040
     10  C9        -0.1560    1.0870    1.1120 C.ar    1  UNL1        0.0708
     11  N2        -0.7020    2.2710    0.7470 N.ar    1  UNL1       -0.1777
     12  N3         0.1420    2.9600   -0.0050 N.ar    1  UNL1       -0.2767
     13  C10        1.2560    2.2610   -0.1550 C.ar    1  UNL1        0.0660
     14  C11        2.4700    2.4460   -0.8160 C.ar    1  UNL1       -0.0356
     15  C12        3.4430    1.4740   -0.7590 C.ar    1  UNL1       -0.0490
     16  C13        3.2680    0.2890   -0.0580 C.ar    1  UNL1        0.0212
     17  C14        4.3000   -0.7330   -0.0060 C.ar    1  UNL1        0.1794
     18  N4         5.4950   -0.6140   -0.6340 N.ar    1  UNL1       -0.1084
     19  N5         6.2070   -1.7210   -0.3880 N.ar    1  UNL1       -0.0229
     20  N6         5.4700   -2.4880    0.3650 N.ar    1  UNL1       -0.0464
     21  N7         4.3140   -1.9150    0.6100 N.ar    1  UNL1       -0.2388
     22  C15        2.0660    0.1110    0.5930 C.ar    1  UNL1       -0.0401
     23  C16        1.0970    1.0880    0.5320 C.ar    1  UNL1        0.0233
     24 H          -4.9232   -0.5249    2.0670 H       1  UNL1        0.1423
     25 H          -3.3202   -0.8727    2.5328 H       1  UNL1        0.1423
     26 H          -5.5232   -0.2268   -0.1812 H       1  UNL1        0.0636
     27 H          -4.8948   -0.1549   -2.5160 H       1  UNL1        0.0618
     28 H          -2.6169   -0.5412   -3.1450 H       1  UNL1        0.0618
     29 H          -0.9487   -1.0022   -1.4561 H       1  UNL1        0.0621
     30 H          -0.3973   -1.5879    0.6623 H       1  UNL1        0.0317
     31 H          -1.6983   -1.8186    1.8744 H       1  UNL1        0.0317
     32 H          -0.0273   -0.3109    2.6532 H       1  UNL1        0.0332
     33 H          -1.6179    0.4511    2.4277 H       1  UNL1        0.0332
     34 H          -0.0310    3.8492   -0.3906 H       1  UNL1        0.1889
     35 H           2.6392    3.3134   -1.3489 H       1  UNL1        0.0639
     36 H           4.3341    1.6320   -1.2550 H       1  UNL1        0.0625
     37 H           3.5851   -2.2925    1.1536 H       1  UNL1        0.1923
     38 H           1.8920   -0.7551    1.1266 H       1  UNL1        0.0632
@<TRIPOS>BOND
     1     1     2    1
     2     2     3   ar
     3     2     7   ar
     4     3     4   ar
     5     4     5   ar
     6     5     6   ar
     7     6     7   ar
     8     7     8    1
     9     8     9    1
    10     9    10    1
    11    10    11   ar
    12    10    23   ar
    13    11    12   ar
    14    12    13   ar
    15    13    14   ar
    16    13    23   ar
    17    14    15   ar
    18    15    16   ar
    19    16    17    1
    20    16    22   ar
    21    17    18   ar
    22    17    21   ar
    23    18    19   ar
    24    19    20   ar
    25    20    21   ar
    26    22    23   ar
    27     1    24    1
    28     1    25    1
    29     3    26    1
    30     4    27    1
    31     5    28    1
    32     6    29    1
    33     8    30    1
    34     8    31    1
    35     9    32    1
    36     9    33    1
    37    12    34    1
    38    14    35    1
    39    15    36    1
    40    21    37    1
    41    22    38    1
@<TRIPOS>MOLECULE
../data/bude_mols_rdkit_confs2/molecule_73.pdb
 38 41 0 0 0
SMALL
GASTEIGER

@<TRIPOS>ATOM
      1  N1        -4.1840   -1.2600   -0.0430 N.pl3   1  UNL1       -0.3577
      2  C1        -3.9220    0.1210    0.1670 C.ar    1  UNL1        0.0278
      3  C2        -4.9810    0.9150    0.5490 C.ar    1  UNL1       -0.0408
      4  C3        -4.7870    2.2480    0.7650 C.ar    1  UNL1       -0.0600
      5  C4        -3.5270    2.7690    0.5930 C.ar    1  UNL1       -0.0614
      6  C5        -2.4650    1.9670    0.2080 C.ar    1  UNL1       -0.0568
      7  C6        -2.6450    0.6200   -0.0130 C.ar    1  UNL1       -0.0264
      8  C7        -1.5060   -0.1950   -0.4160 C.3     1  UNL1       -0.0205
      9  C8        -0.9510   -1.0530    0.6990 C.3     1  UNL1       -0.0040
     10  C9         0.1930   -1.8140    0.1450 C.ar    1  UNL1        0.0708
     11  N2         0.1680   -3.1110   -0.1950 N.ar    1  UNL1       -0.1777
     12  N3         1.3480   -3.4850   -0.6580 N.ar    1  UNL1       -0.2767
     13  C10        2.1660   -2.4200   -0.6240 C.ar    1  UNL1        0.0660
     14  C11        3.4900   -2.2150   -0.9750 C.ar    1  UNL1       -0.0356
     15  C12        4.0370   -0.9610   -0.8060 C.ar    1  UNL1       -0.0490
     16  C13        3.3240    0.1140   -0.2980 C.ar    1  UNL1        0.0212
     17  C14        3.9600    1.4160   -0.1410 C.ar    1  UNL1        0.1794
     18  N4         3.3890    2.5180    0.3270 N.ar    1  UNL1       -0.1084
     19  N5         4.3090    3.4670    0.3040 N.ar    1  UNL1       -0.0229
     20  N6         5.4400    2.9970   -0.1650 N.ar    1  UNL1       -0.0464
     21  N7         5.2300    1.7110   -0.4470 N.ar    1  UNL1       -0.2388
     22  C15        2.0070   -0.0930    0.0500 C.ar    1  UNL1       -0.0401
     23  C16        1.4590   -1.3520   -0.1200 C.ar    1  UNL1        0.0233
     24 H          -5.0938   -1.6135    0.0856 H       1  UNL1        0.1423
     25 H          -3.4557   -1.8631   -0.3171 H       1  UNL1        0.1423
     26 H          -5.9190    0.5024    0.6715 H       1  UNL1        0.0636
     27 H          -5.5717    2.8537    1.0521 H       1  UNL1        0.0618
     28 H          -3.3690    3.7761    0.7536 H       1  UNL1        0.0618
     29 H          -1.5289    2.3837    0.0855 H       1  UNL1        0.0621
     30 H          -0.7296    0.4556   -0.7607 H       1  UNL1        0.0317
     31 H          -1.8502   -0.8589   -1.1813 H       1  UNL1        0.0317
     32 H          -1.7034   -1.7278    1.0503 H       1  UNL1        0.0332
     33 H          -0.6376   -0.4460    1.5225 H       1  UNL1        0.0332
     34 H           1.5860   -4.3869   -0.9729 H       1  UNL1        0.1889
     35 H           4.0574   -2.9879   -1.3566 H       1  UNL1        0.0639
     36 H           5.0240   -0.8155   -1.0701 H       1  UNL1        0.0625
     37 H           5.8944    1.0856   -0.8167 H       1  UNL1        0.1923
     38 H           1.4382    0.6790    0.4315 H       1  UNL1        0.0632
@<TRIPOS>BOND
     1     1     2    1
     2     2     3   ar
     3     2     7   ar
     4     3     4   ar
     5     4     5   ar
     6     5     6   ar
     7     6     7   ar
     8     7     8    1
     9     8     9    1
    10     9    10    1
    11    10    11   ar
    12    10    23   ar
    13    11    12   ar
    14    12    13   ar
    15    13    14   ar
    16    13    23   ar
    17    14    15   ar
    18    15    16   ar
    19    16    17    1
    20    16    22   ar
    21    17    18   ar
    22    17    21   ar
    23    18    19   ar
    24    19    20   ar
    25    20    21   ar
    26    22    23   ar
    27     1    24    1
    28     1    25    1
    29     3    26    1
    30     4    27    1
    31     5    28    1
    32     6    29    1
    33     8    30    1
    34     8    31    1
    35     9    32    1
    36     9    33    1
    37    12    34    1
    38    14    35    1
    39    15    36    1
    40    21    37    1
    41    22    38    1
@<TRIPOS>MOLECULE
../data/bude_mols_rdkit_confs2/molecule_73.pdb
 38 41 0 0 0
SMALL
GASTEIGER

@<TRIPOS>ATOM
      1  N1        -1.3690   -0.3970    1.3950 N.pl3   1  UNL1       -0.3577
      2  C1        -2.5110    0.1830    0.7710 C.ar    1  UNL1        0.0278
      3  C2        -3.5230    0.6250    1.6380 C.ar    1  UNL1       -0.0408
      4  C3        -4.6610    1.1750    1.0900 C.ar    1  UNL1       -0.0600
      5  C4        -4.8190    1.2960   -0.2730 C.ar    1  UNL1       -0.0614
      6  C5        -3.8410    0.8700   -1.1370 C.ar    1  UNL1       -0.0568
      7  C6        -2.6830    0.3100   -0.5800 C.ar    1  UNL1       -0.0264
      8  C7        -1.6030   -0.1100   -1.4990 C.3     1  UNL1       -0.0205
      9  C8        -0.5090    0.8700   -1.7070 C.3     1  UNL1       -0.0040
     10  C9         0.2860    1.2640   -0.5460 C.ar    1  UNL1        0.0708
     11  N2         0.0930    2.4120    0.1730 N.ar    1  UNL1       -0.1777
     12  N3         0.9390    2.5050    1.1640 N.ar    1  UNL1       -0.2767
     13  C10        1.7190    1.3970    1.1100 C.ar    1  UNL1        0.0660
     14  C11        2.7800    0.9630    1.8990 C.ar    1  UNL1       -0.0356
     15  C12        3.4040   -0.2230    1.6080 C.ar    1  UNL1       -0.0490
     16  C13        3.0320   -1.0310    0.5510 C.ar    1  UNL1        0.0212
     17  C14        3.7450   -2.2720    0.2880 C.ar    1  UNL1        0.1794
     18  N4         4.8020   -2.7650    0.9500 N.ar    1  UNL1       -0.1084
     19  N5         5.1620   -3.9160    0.3920 N.ar    1  UNL1       -0.0229
     20  N6         4.3240   -4.1210   -0.6060 N.ar    1  UNL1       -0.0464
     21  N7         3.4400   -3.1260   -0.6950 N.ar    1  UNL1       -0.2388
     22  C15        1.9780   -0.6020   -0.2340 C.ar    1  UNL1       -0.0401
     23  C16        1.3410    0.6090    0.0640 C.ar    1  UNL1        0.0233
     24 H          -1.3194   -0.4523    2.3767 H       1  UNL1        0.1423
     25 H          -0.6295   -0.7425    0.8445 H       1  UNL1        0.1423
     26 H          -3.4169    0.5399    2.6610 H       1  UNL1        0.0636
     27 H          -5.4130    1.5042    1.7155 H       1  UNL1        0.0618
     28 H          -5.6846    1.7127   -0.6499 H       1  UNL1        0.0618
     29 H          -3.9542    0.9588   -2.1589 H       1  UNL1        0.0621
     30 H          -2.0449   -0.3146   -2.4518 H       1  UNL1        0.0317
     31 H          -1.1453   -0.9599   -1.0373 H       1  UNL1        0.0317
     32 H          -0.9494    1.7589   -2.1081 H       1  UNL1        0.0332
     33 H           0.1839    0.3664   -2.3482 H       1  UNL1        0.0332
     34 H           0.9986    3.2358    1.8209 H       1  UNL1        0.1889
     35 H           3.0961    1.5316    2.7002 H       1  UNL1        0.0639
     36 H           4.1881   -0.5261    2.2066 H       1  UNL1        0.0625
     37 H           2.7112   -3.0382   -1.3510 H       1  UNL1        0.1923
     38 H           1.6624   -1.1710   -1.0351 H       1  UNL1        0.0632
@<TRIPOS>BOND
     1     1     2    1
     2     2     3   ar
     3     2     7   ar
     4     3     4   ar
     5     4     5   ar
     6     5     6   ar
     7     6     7   ar
     8     7     8    1
     9     8     9    1
    10     9    10    1
    11    10    11   ar
    12    10    23   ar
    13    11    12   ar
    14    12    13   ar
    15    13    14   ar
    16    13    23   ar
    17    14    15   ar
    18    15    16   ar
    19    16    17    1
    20    16    22   ar
    21    17    18   ar
    22    17    21   ar
    23    18    19   ar
    24    19    20   ar
    25    20    21   ar
    26    22    23   ar
    27     1    24    1
    28     1    25    1
    29     3    26    1
    30     4    27    1
    31     5    28    1
    32     6    29    1
    33     8    30    1
    34     8    31    1
    35     9    32    1
    36     9    33    1
    37    12    34    1
    38    14    35    1
    39    15    36    1
    40    21    37    1
    41    22    38    1
@<TRIPOS>MOLECULE
../data/bude_mols_rdkit_confs2/molecule_73.pdb
 38 41 0 0 0
SMALL
GASTEIGER

@<TRIPOS>ATOM
      1  N1         3.9530    1.4590   -1.3180 N.pl3   1  UNL1       -0.3577
      2  C1         3.6590    0.5210   -0.2680 C.ar    1  UNL1        0.0278
      3  C2         4.5520   -0.4030    0.1810 C.ar    1  UNL1       -0.0408
      4  C3         4.2380   -1.2920    1.1950 C.ar    1  UNL1       -0.0600
      5  C4         2.9790   -1.2300    1.7590 C.ar    1  UNL1       -0.0614
      6  C5         2.0770   -0.2850    1.2940 C.ar    1  UNL1       -0.0568
      7  C6         2.3890    0.6000    0.2850 C.ar    1  UNL1       -0.0264
      8  C7         1.4090    1.6120   -0.2090 C.3     1  UNL1       -0.0205
      9  C8         0.8550    1.1160   -1.5520 C.3     1  UNL1       -0.0040
     10  C9         0.1760   -0.1910   -1.3820 C.ar    1  UNL1        0.0708
     11  N2         0.6250   -1.4070   -1.7210 N.ar    1  UNL1       -0.1777
     12  N3        -0.2700   -2.3380   -1.4090 N.ar    1  UNL1       -0.2767
     13  C10       -1.3320   -1.7170   -0.8530 C.ar    1  UNL1        0.0660
     14  C11       -2.5110   -2.2380   -0.3650 C.ar    1  UNL1       -0.0356
     15  C12       -3.4640   -1.3970    0.1650 C.ar    1  UNL1       -0.0490
     16  C13       -3.2480   -0.0280    0.2130 C.ar    1  UNL1        0.0212
     17  C14       -4.2240    0.8900    0.7620 C.ar    1  UNL1        0.1794
     18  N4        -4.0860    2.2150    0.8360 N.ar    1  UNL1       -0.1084
     19  N5        -5.1820    2.7250    1.3970 N.ar    1  UNL1       -0.0229
     20  N6        -6.0230    1.7270    1.6820 N.ar    1  UNL1       -0.0464
     21  N7        -5.4170    0.5960    1.2830 N.ar    1  UNL1       -0.2388
     22  C15       -2.0390    0.4500   -0.2930 C.ar    1  UNL1       -0.0401
     23  C16       -1.0730   -0.3650   -0.8260 C.ar    1  UNL1        0.0233
     24 H           4.8375    1.4528   -1.7502 H       1  UNL1        0.1423
     25 H           3.2697    2.1073   -1.6045 H       1  UNL1        0.1423
     26 H           5.4903   -0.4421   -0.2468 H       1  UNL1        0.0636
     27 H           4.9291   -1.9852    1.5219 H       1  UNL1        0.0618
     28 H           2.7129   -1.8784    2.5165 H       1  UNL1        0.0618
     29 H           1.1376   -0.2430    1.7192 H       1  UNL1        0.0621
     30 H           1.8965    2.5550   -0.3428 H       1  UNL1        0.0317
     31 H           0.6155    1.7384    0.4977 H       1  UNL1        0.0317
     32 H           1.6614    1.0063   -2.2467 H       1  UNL1        0.0332
     33 H           0.1467    1.8291   -1.9191 H       1  UNL1        0.0332
     34 H          -0.1757   -3.3068   -1.5567 H       1  UNL1        0.1889
     35 H          -2.6792   -3.2557   -0.3967 H       1  UNL1        0.0639
     36 H          -4.3464   -1.7888    0.5295 H       1  UNL1        0.0625
     37 H          -5.7947   -0.3097    1.3627 H       1  UNL1        0.1923
     38 H          -1.8628    1.4665   -0.2649 H       1  UNL1        0.0632
@<TRIPOS>BOND
     1     1     2    1
     2     2     3   ar
     3     2     7   ar
     4     3     4   ar
     5     4     5   ar
     6     5     6   ar
     7     6     7   ar
     8     7     8    1
     9     8     9    1
    10     9    10    1
    11    10    11   ar
    12    10    23   ar
    13    11    12   ar
    14    12    13   ar
    15    13    14   ar
    16    13    23   ar
    17    14    15   ar
    18    15    16   ar
    19    16    17    1
    20    16    22   ar
    21    17    18   ar
    22    17    21   ar
    23    18    19   ar
    24    19    20   ar
    25    20    21   ar
    26    22    23   ar
    27     1    24    1
    28     1    25    1
    29     3    26    1
    30     4    27    1
    31     5    28    1
    32     6    29    1
    33     8    30    1
    34     8    31    1
    35     9    32    1
    36     9    33    1
    37    12    34    1
    38    14    35    1
    39    15    36    1
    40    21    37    1
    41    22    38    1
@<TRIPOS>MOLECULE
../data/bude_mols_rdkit_confs2/molecule_73.pdb
 38 41 0 0 0
SMALL
GASTEIGER

@<TRIPOS>ATOM
      1  N1         3.4560   -0.9020    1.8680 N.pl3   1  UNL1       -0.3577
      2  C1         3.8260    0.2510    1.1100 C.ar    1  UNL1        0.0278
      3  C2         4.8130    1.0620    1.6440 C.ar    1  UNL1       -0.0408
      4  C3         5.2420    2.1910    0.9810 C.ar    1  UNL1       -0.0600
      5  C4         4.6590    2.5020   -0.2450 C.ar    1  UNL1       -0.0614
      6  C5         3.6730    1.6700   -0.7490 C.ar    1  UNL1       -0.0568
      7  C6         3.2330    0.5430   -0.1070 C.ar    1  UNL1       -0.0264
      8  C7         2.1930   -0.3370   -0.6500 C.3     1  UNL1       -0.0205
      9  C8         0.8460   -0.1190    0.0500 C.3     1  UNL1       -0.0040
     10  C9        -0.1460   -1.0750   -0.5180 C.ar    1  UNL1        0.0708
     11  N2         0.1030   -2.2300   -1.1890 N.ar    1  UNL1       -0.1777
     12  N3        -1.0300   -2.8180   -1.5240 N.ar    1  UNL1       -0.2767
     13  C10       -2.0850   -2.0910   -1.1000 C.ar    1  UNL1        0.0660
     14  C11       -3.4550   -2.2560   -1.1880 C.ar    1  UNL1       -0.0356
     15  C12       -4.2780   -1.3010   -0.6290 C.ar    1  UNL1       -0.0490
     16  C13       -3.7640   -0.1970    0.0080 C.ar    1  UNL1        0.0212
     17  C14       -4.6360    0.8240    0.6030 C.ar    1  UNL1        0.1794
     18  N4        -4.2900    1.9670    1.2220 N.ar    1  UNL1       -0.1084
     19  N5        -5.3670    2.6340    1.6180 N.ar    1  UNL1       -0.0229
     20  N6        -6.3810    1.8940    1.2370 N.ar    1  UNL1       -0.0464
     21  N7        -5.9920    0.7920    0.6210 N.ar    1  UNL1       -0.2388
     22  C15       -2.3960   -0.0610    0.0800 C.ar    1  UNL1       -0.0401
     23  C16       -1.5300   -0.9910   -0.4640 C.ar    1  UNL1        0.0233
     24 H           3.8940   -1.0855    2.7304 H       1  UNL1        0.1423
     25 H           2.7630   -1.5131    1.5280 H       1  UNL1        0.1423
     26 H           5.2343    0.8168    2.5536 H       1  UNL1        0.0636
     27 H           5.9781    2.7921    1.3834 H       1  UNL1        0.0618
     28 H           4.9570    3.3392   -0.7697 H       1  UNL1        0.0618
     29 H           3.2469    1.9123   -1.6572 H       1  UNL1        0.0621
     30 H           2.4939   -1.3548   -0.5144 H       1  UNL1        0.0317
     31 H           2.0710   -0.1093   -1.6884 H       1  UNL1        0.0317
     32 H           0.5134    0.8848   -0.1132 H       1  UNL1        0.0332
     33 H           0.9504   -0.2831    1.1022 H       1  UNL1        0.0332
     34 H          -1.0964   -3.6688   -2.0150 H       1  UNL1        0.1889
     35 H          -3.8548   -3.0798   -1.6639 H       1  UNL1        0.0639
     36 H          -5.3015   -1.4178   -0.6903 H       1  UNL1        0.0625
     37 H          -6.5709    0.0878    0.2491 H       1  UNL1        0.1923
     38 H          -2.0028    0.7651    0.5574 H       1  UNL1        0.0632
@<TRIPOS>BOND
     1     1     2    1
     2     2     3   ar
     3     2     7   ar
     4     3     4   ar
     5     4     5   ar
     6     5     6   ar
     7     6     7   ar
     8     7     8    1
     9     8     9    1
    10     9    10    1
    11    10    11   ar
    12    10    23   ar
    13    11    12   ar
    14    12    13   ar
    15    13    14   ar
    16    13    23   ar
    17    14    15   ar
    18    15    16   ar
    19    16    17    1
    20    16    22   ar
    21    17    18   ar
    22    17    21   ar
    23    18    19   ar
    24    19    20   ar
    25    20    21   ar
    26    22    23   ar
    27     1    24    1
    28     1    25    1
    29     3    26    1
    30     4    27    1
    31     5    28    1
    32     6    29    1
    33     8    30    1
    34     8    31    1
    35     9    32    1
    36     9    33    1
    37    12    34    1
    38    14    35    1
    39    15    36    1
    40    21    37    1
    41    22    38    1
@<TRIPOS>MOLECULE
../data/bude_mols_rdkit_confs2/molecule_73.pdb
 38 41 0 0 0
SMALL
GASTEIGER

@<TRIPOS>ATOM
      1  N1        -2.9500    1.9410   -0.2010 N.pl3   1  UNL1       -0.3577
      2  C1        -3.4800    0.6180   -0.2130 C.ar    1  UNL1        0.0278
      3  C2        -4.6700    0.4680    0.5210 C.ar    1  UNL1       -0.0408
      4  C3        -5.3190   -0.7500    0.5290 C.ar    1  UNL1       -0.0600
      5  C4        -4.8150   -1.8210   -0.1750 C.ar    1  UNL1       -0.0614
      6  C5        -3.6610   -1.6380   -0.8730 C.ar    1  UNL1       -0.0568
      7  C6        -2.9620   -0.4330   -0.9160 C.ar    1  UNL1       -0.0264
      8  C7        -1.6930   -0.3220   -1.6130 C.3     1  UNL1       -0.0205
      9  C8        -0.4310   -0.6510   -0.9930 C.3     1  UNL1       -0.0040
     10  C9         0.0060    0.0790    0.1820 C.ar    1  UNL1        0.0708
     11  N2        -0.6120    0.6860    1.1830 N.ar    1  UNL1       -0.1777
     12  N3         0.2160    1.2490    2.0440 N.ar    1  UNL1       -0.2767
     13  C10        1.4560    1.0300    1.6370 C.ar    1  UNL1        0.0660
     14  C11        2.7300    1.3410    2.1180 C.ar    1  UNL1       -0.0356
     15  C12        3.8460    0.9180    1.4350 C.ar    1  UNL1       -0.0490
     16  C13        3.7750    0.1830    0.2700 C.ar    1  UNL1        0.0212
     17  C14        4.9560   -0.2890   -0.4400 C.ar    1  UNL1        0.1794
     18  N4         6.2540   -0.1130   -0.1820 N.ar    1  UNL1       -0.1084
     19  N5         6.9850   -0.7390   -1.1190 N.ar    1  UNL1       -0.0229
     20  N6         6.1490   -1.3090   -1.9660 N.ar    1  UNL1       -0.0464
     21  N7         4.9210   -1.0370   -1.5570 N.ar    1  UNL1       -0.2388
     22  C15        2.4930   -0.1180   -0.2000 C.ar    1  UNL1       -0.0401
     23  C16        1.3760    0.3010    0.4750 C.ar    1  UNL1        0.0233
     24 H          -3.3870    2.6415    0.3353 H       1  UNL1        0.1423
     25 H          -2.1469    2.1544   -0.7290 H       1  UNL1        0.1423
     26 H          -5.0562    1.2648    1.0511 H       1  UNL1        0.0636
     27 H          -6.1918   -0.8594    1.0686 H       1  UNL1        0.0618
     28 H          -5.2971   -2.7335   -0.1733 H       1  UNL1        0.0618
     29 H          -3.2811   -2.4388   -1.4016 H       1  UNL1        0.0621
     30 H          -1.6135    0.6991   -1.9228 H       1  UNL1        0.0317
     31 H          -1.7812   -1.0937   -2.3489 H       1  UNL1        0.0317
     32 H           0.3247   -0.5188   -1.7389 H       1  UNL1        0.0332
     33 H          -0.5861   -1.6438   -0.6253 H       1  UNL1        0.0332
     34 H          -0.0450    1.7473    2.8519 H       1  UNL1        0.1889
     35 H           2.8338    1.8886    2.9866 H       1  UNL1        0.0639
     36 H           4.7763    1.1608    1.8100 H       1  UNL1        0.0625
     37 H           4.0987   -1.3390   -2.0062 H       1  UNL1        0.1923
     38 H           2.3861   -0.6643   -1.0690 H       1  UNL1        0.0632
@<TRIPOS>BOND
     1     1     2    1
     2     2     3   ar
     3     2     7   ar
     4     3     4   ar
     5     4     5   ar
     6     5     6   ar
     7     6     7   ar
     8     7     8    1
     9     8     9    1
    10     9    10    1
    11    10    11   ar
    12    10    23   ar
    13    11    12   ar
    14    12    13   ar
    15    13    14   ar
    16    13    23   ar
    17    14    15   ar
    18    15    16   ar
    19    16    17    1
    20    16    22   ar
    21    17    18   ar
    22    17    21   ar
    23    18    19   ar
    24    19    20   ar
    25    20    21   ar
    26    22    23   ar
    27     1    24    1
    28     1    25    1
    29     3    26    1
    30     4    27    1
    31     5    28    1
    32     6    29    1
    33     8    30    1
    34     8    31    1
    35     9    32    1
    36     9    33    1
    37    12    34    1
    38    14    35    1
    39    15    36    1
    40    21    37    1
    41    22    38    1
@<TRIPOS>MOLECULE
../data/bude_mols_rdkit_confs2/molecule_73.pdb
 38 41 0 0 0
SMALL
GASTEIGER

@<TRIPOS>ATOM
      1  N1        -4.6270   -0.2140   -1.8440 N.pl3   1  UNL1       -0.3577
      2  C1        -3.9740   -0.0160   -0.6010 C.ar    1  UNL1        0.0278
      3  C2        -4.6440   -0.2420    0.5830 C.ar    1  UNL1       -0.0408
      4  C3        -4.0020   -0.0510    1.7890 C.ar    1  UNL1       -0.0600
      5  C4        -2.6800    0.3680    1.8450 C.ar    1  UNL1       -0.0614
      6  C5        -1.9930    0.5990    0.6680 C.ar    1  UNL1       -0.0568
      7  C6        -2.6480    0.4030   -0.5220 C.ar    1  UNL1       -0.0264
      8  C7        -1.9640    0.6390   -1.8120 C.3     1  UNL1       -0.0205
      9  C8        -0.4690    0.7990   -1.6520 C.3     1  UNL1       -0.0040
     10  C9         0.1110   -0.4280   -1.0560 C.ar    1  UNL1        0.0708
     11  N2        -0.4300   -1.6580   -1.0560 N.ar    1  UNL1       -0.1777
     12  N3         0.3710   -2.5000   -0.4200 N.ar    1  UNL1       -0.2767
     13  C10        1.4700   -1.8650    0.0260 C.ar    1  UNL1        0.0660
     14  C11        2.5930   -2.2380    0.7220 C.ar    1  UNL1       -0.0356
     15  C12        3.5830   -1.3330    1.0380 C.ar    1  UNL1       -0.0490
     16  C13        3.4610    0.0070    0.6500 C.ar    1  UNL1        0.0212
     17  C14        4.5020    0.9580    0.9830 C.ar    1  UNL1        0.1794
     18  N4         5.6220    0.6620    1.6750 N.ar    1  UNL1       -0.1084
     19  N5         6.3570    1.7790    1.7990 N.ar    1  UNL1       -0.0229
     20  N6         5.7040    2.7270    1.1990 N.ar    1  UNL1       -0.0464
     21  N7         4.5690    2.2580    0.6920 N.ar    1  UNL1       -0.2388
     22  C15        2.3200    0.3370   -0.0440 C.ar    1  UNL1       -0.0401
     23  C16        1.3090   -0.5340   -0.3800 C.ar    1  UNL1        0.0233
     24 H          -5.5655   -0.5108   -1.8653 H       1  UNL1        0.1423
     25 H          -4.1419   -0.0547   -2.6858 H       1  UNL1        0.1423
     26 H          -5.6274   -0.5546    0.5668 H       1  UNL1        0.0636
     27 H          -4.5152   -0.2232    2.6676 H       1  UNL1        0.0618
     28 H          -2.2148    0.5056    2.7559 H       1  UNL1        0.0618
     29 H          -1.0097    0.9118    0.6837 H       1  UNL1        0.0621
     30 H          -2.3596    1.5303   -2.2525 H       1  UNL1        0.0317
     31 H          -2.1357   -0.2153   -2.4329 H       1  UNL1        0.0317
     32 H          -0.2683    1.6328   -1.0121 H       1  UNL1        0.0332
     33 H          -0.0286    0.9649   -2.6129 H       1  UNL1        0.0332
     34 H           0.1873   -3.4586   -0.2914 H       1  UNL1        0.1889
     35 H           2.6985   -3.2215    1.0162 H       1  UNL1        0.0639
     36 H           4.4162   -1.6435    1.5618 H       1  UNL1        0.0625
     37 H           3.8982    2.7766    0.1916 H       1  UNL1        0.1923
     38 H           2.2132    1.3206   -0.3374 H       1  UNL1        0.0632
@<TRIPOS>BOND
     1     1     2    1
     2     2     3   ar
     3     2     7   ar
     4     3     4   ar
     5     4     5   ar
     6     5     6   ar
     7     6     7   ar
     8     7     8    1
     9     8     9    1
    10     9    10    1
    11    10    11   ar
    12    10    23   ar
    13    11    12   ar
    14    12    13   ar
    15    13    14   ar
    16    13    23   ar
    17    14    15   ar
    18    15    16   ar
    19    16    17    1
    20    16    22   ar
    21    17    18   ar
    22    17    21   ar
    23    18    19   ar
    24    19    20   ar
    25    20    21   ar
    26    22    23   ar
    27     1    24    1
    28     1    25    1
    29     3    26    1
    30     4    27    1
    31     5    28    1
    32     6    29    1
    33     8    30    1
    34     8    31    1
    35     9    32    1
    36     9    33    1
    37    12    34    1
    38    14    35    1
    39    15    36    1
    40    21    37    1
    41    22    38    1
@<TRIPOS>MOLECULE
../data/bude_mols_rdkit_confs2/molecule_73.pdb
 38 41 0 0 0
SMALL
GASTEIGER

@<TRIPOS>ATOM
      1  N1        -2.6600    0.2940   -2.1460 N.pl3   1  UNL1       -0.3577
      2  C1        -3.3440   -0.4540   -1.1340 C.ar    1  UNL1        0.0278
      3  C2        -4.1990   -1.4830   -1.4900 C.ar    1  UNL1       -0.0408
      4  C3        -4.8580   -2.2010   -0.5080 C.ar    1  UNL1       -0.0600
      5  C4        -4.6920   -1.9250    0.8380 C.ar    1  UNL1       -0.0614
      6  C5        -3.8380   -0.8980    1.1780 C.ar    1  UNL1       -0.0568
      7  C6        -3.1710   -0.1690    0.2050 C.ar    1  UNL1       -0.0264
      8  C7        -2.2400    0.9490    0.5760 C.3     1  UNL1       -0.0205
      9  C8        -0.8410    0.4080    0.4000 C.3     1  UNL1       -0.0040
     10  C9         0.1820    1.4290    0.7410 C.ar    1  UNL1        0.0708
     11  N2         0.0660    2.6940    1.1420 N.ar    1  UNL1       -0.1777
     12  N3         1.2640    3.2390    1.3340 N.ar    1  UNL1       -0.2767
     13  C10        2.2140    2.3210    1.0570 C.ar    1  UNL1        0.0660
     14  C11        3.5930    2.3590    1.0910 C.ar    1  UNL1       -0.0356
     15  C12        4.2830    1.2220    0.7400 C.ar    1  UNL1       -0.0490
     16  C13        3.6310    0.0700    0.3630 C.ar    1  UNL1        0.0212
     17  C14        4.3950   -1.1350   -0.0070 C.ar    1  UNL1        0.1794
     18  N4         5.7160   -1.2300   -0.0140 N.ar    1  UNL1       -0.1084
     19  N5         6.0200   -2.4540   -0.3990 N.ar    1  UNL1       -0.0229
     20  N6         4.8930   -3.1140   -0.6290 N.ar    1  UNL1       -0.0464
     21  N7         3.8780   -2.3010   -0.3870 N.ar    1  UNL1       -0.2388
     22  C15        2.2600    0.0540    0.3360 C.ar    1  UNL1       -0.0401
     23  C16        1.5410    1.1800    0.6830 C.ar    1  UNL1        0.0233
     24 H          -2.7964    0.0757   -3.0962 H       1  UNL1        0.1423
     25 H          -2.0535    1.0265   -1.8914 H       1  UNL1        0.1423
     26 H          -4.3444   -1.7139   -2.4853 H       1  UNL1        0.0636
     27 H          -5.4925   -2.9654   -0.7876 H       1  UNL1        0.0618
     28 H          -5.1895   -2.4683    1.5607 H       1  UNL1        0.0618
     29 H          -3.6925   -0.6677    2.1734 H       1  UNL1        0.0621
     30 H          -2.3991    1.2423    1.5926 H       1  UNL1        0.0317
     31 H          -2.4041    1.8121   -0.0348 H       1  UNL1        0.0317
     32 H          -0.7088    0.1097   -0.6190 H       1  UNL1        0.0332
     33 H          -0.7171   -0.4258    1.0591 H       1  UNL1        0.0332
     34 H           1.4309    4.1629    1.6303 H       1  UNL1        0.1889
     35 H           4.0929    3.2170    1.3721 H       1  UNL1        0.0639
     36 H           5.3148    1.2330    0.7598 H       1  UNL1        0.0625
     37 H           2.9213   -2.5174   -0.4719 H       1  UNL1        0.1923
     38 H           1.7627   -0.8053    0.0545 H       1  UNL1        0.0632
@<TRIPOS>BOND
     1     1     2    1
     2     2     3   ar
     3     2     7   ar
     4     3     4   ar
     5     4     5   ar
     6     5     6   ar
     7     6     7   ar
     8     7     8    1
     9     8     9    1
    10     9    10    1
    11    10    11   ar
    12    10    23   ar
    13    11    12   ar
    14    12    13   ar
    15    13    14   ar
    16    13    23   ar
    17    14    15   ar
    18    15    16   ar
    19    16    17    1
    20    16    22   ar
    21    17    18   ar
    22    17    21   ar
    23    18    19   ar
    24    19    20   ar
    25    20    21   ar
    26    22    23   ar
    27     1    24    1
    28     1    25    1
    29     3    26    1
    30     4    27    1
    31     5    28    1
    32     6    29    1
    33     8    30    1
    34     8    31    1
    35     9    32    1
    36     9    33    1
    37    12    34    1
    38    14    35    1
    39    15    36    1
    40    21    37    1
    41    22    38    1
@<TRIPOS>MOLECULE
../data/bude_mols_rdkit_confs2/molecule_73.pdb
 38 41 0 0 0
SMALL
GASTEIGER

@<TRIPOS>ATOM
      1  N1        -3.2950    0.7860   -1.8040 N.pl3   1  UNL1       -0.3577
      2  C1        -3.4360    0.8600   -0.3990 C.ar    1  UNL1        0.0278
      3  C2        -4.5160    1.6240    0.0580 C.ar    1  UNL1       -0.0408
      4  C3        -4.7480    1.7590    1.4050 C.ar    1  UNL1       -0.0600
      5  C4        -3.9070    1.1360    2.3010 C.ar    1  UNL1       -0.0614
      6  C5        -2.8540    0.3910    1.8240 C.ar    1  UNL1       -0.0568
      7  C6        -2.5880    0.2310    0.4770 C.ar    1  UNL1       -0.0264
      8  C7        -1.4410   -0.5790    0.1020 C.3     1  UNL1       -0.0205
      9  C8        -1.0030   -0.5600   -1.3100 C.3     1  UNL1       -0.0040
     10  C9         0.1930   -1.4870   -1.3900 C.ar    1  UNL1        0.0708
     11  N2         0.1970   -2.7530   -1.8780 N.ar    1  UNL1       -0.1777
     12  N3         1.4070   -3.2610   -1.7840 N.ar    1  UNL1       -0.2767
     13  C10        2.2340   -2.3410   -1.2310 C.ar    1  UNL1        0.0660
     14  C11        3.5810   -2.3450   -0.9120 C.ar    1  UNL1       -0.0356
     15  C12        4.1250   -1.2160   -0.3480 C.ar    1  UNL1       -0.0490
     16  C13        3.3650   -0.0950   -0.0970 C.ar    1  UNL1        0.0212
     17  C14        3.9970    1.0720    0.5010 C.ar    1  UNL1        0.1794
     18  N4         5.2890    1.2000    0.8550 N.ar    1  UNL1       -0.1084
     19  N5         5.4470    2.4100    1.3580 N.ar    1  UNL1       -0.0229
     20  N6         4.2810    3.0300    1.3220 N.ar    1  UNL1       -0.0464
     21  N7         3.3730    2.2270    0.7990 N.ar    1  UNL1       -0.2388
     22  C15        2.0300   -0.0900   -0.4130 C.ar    1  UNL1       -0.0401
     23  C16        1.4740   -1.2360   -0.9870 C.ar    1  UNL1        0.0233
     24 H          -3.9322    1.2572   -2.3882 H       1  UNL1        0.1423
     25 H          -2.5596    0.2633   -2.1981 H       1  UNL1        0.1423
     26 H          -5.1406    2.0879   -0.6200 H       1  UNL1        0.0636
     27 H          -5.5445    2.3216    1.7427 H       1  UNL1        0.0618
     28 H          -4.0651    1.2272    3.3167 H       1  UNL1        0.0618
     29 H          -2.2318   -0.0714    2.5052 H       1  UNL1        0.0621
     30 H          -1.6754   -1.5937    0.3477 H       1  UNL1        0.0317
     31 H          -0.6235   -0.1448    0.6387 H       1  UNL1        0.0317
     32 H          -0.7244    0.4318   -1.5993 H       1  UNL1        0.0332
     33 H          -1.7866   -0.8744   -1.9672 H       1  UNL1        0.0332
     34 H           1.6698   -4.1657   -2.0700 H       1  UNL1        0.1889
     35 H           4.1637   -3.1772   -1.0936 H       1  UNL1        0.0639
     36 H           5.1283   -1.2079   -0.1064 H       1  UNL1        0.0625
     37 H           2.4213    2.4334    0.6545 H       1  UNL1        0.1923
     38 H           1.4486    0.7429   -0.2305 H       1  UNL1        0.0632
@<TRIPOS>BOND
     1     1     2    1
     2     2     3   ar
     3     2     7   ar
     4     3     4   ar
     5     4     5   ar
     6     5     6   ar
     7     6     7   ar
     8     7     8    1
     9     8     9    1
    10     9    10    1
    11    10    11   ar
    12    10    23   ar
    13    11    12   ar
    14    12    13   ar
    15    13    14   ar
    16    13    23   ar
    17    14    15   ar
    18    15    16   ar
    19    16    17    1
    20    16    22   ar
    21    17    18   ar
    22    17    21   ar
    23    18    19   ar
    24    19    20   ar
    25    20    21   ar
    26    22    23   ar
    27     1    24    1
    28     1    25    1
    29     3    26    1
    30     4    27    1
    31     5    28    1
    32     6    29    1
    33     8    30    1
    34     8    31    1
    35     9    32    1
    36     9    33    1
    37    12    34    1
    38    14    35    1
    39    15    36    1
    40    21    37    1
    41    22    38    1
@<TRIPOS>MOLECULE
../data/bude_mols_rdkit_confs2/molecule_73.pdb
 38 41 0 0 0
SMALL
GASTEIGER

@<TRIPOS>ATOM
      1  N1        -3.6360   -2.0060    0.2840 N.pl3   1  UNL1       -0.3577
      2  C1        -3.9620   -0.6330    0.3680 C.ar    1  UNL1        0.0278
      3  C2        -5.1580   -0.3190    1.0340 C.ar    1  UNL1       -0.0408
      4  C3        -5.5860    0.9740    1.1840 C.ar    1  UNL1       -0.0600
      5  C4        -4.7820    1.9780    0.6470 C.ar    1  UNL1       -0.0614
      6  C5        -3.6020    1.6720   -0.0080 C.ar    1  UNL1       -0.0568
      7  C6        -3.1860    0.3670   -0.1520 C.ar    1  UNL1       -0.0264
      8  C7        -1.9490    0.0610   -0.8860 C.3     1  UNL1       -0.0205
      9  C8        -0.8000   -0.4190    0.0180 C.3     1  UNL1       -0.0040
     10  C9         0.3440   -0.6380   -0.9360 C.ar    1  UNL1        0.0708
     11  N2         0.2270   -1.0570   -2.2270 N.ar    1  UNL1       -0.1777
     12  N3         1.4130   -1.0930   -2.8000 N.ar    1  UNL1       -0.2767
     13  C10        2.3180   -0.6940   -1.8740 C.ar    1  UNL1        0.0660
     14  C11        3.6950   -0.5540   -1.9020 C.ar    1  UNL1       -0.0356
     15  C12        4.3850   -0.1420   -0.7890 C.ar    1  UNL1       -0.0490
     16  C13        3.7500    0.1540    0.4140 C.ar    1  UNL1        0.0212
     17  C14        4.5110    0.5610    1.5880 C.ar    1  UNL1        0.1794
     18  N4         4.0880    0.8210    2.8360 N.ar    1  UNL1       -0.1084
     19  N5         5.1280    1.1310    3.5940 N.ar    1  UNL1       -0.0229
     20  N6         6.2050    1.0700    2.8370 N.ar    1  UNL1       -0.0464
     21  N7         5.8540    0.7240    1.6100 N.ar    1  UNL1       -0.2388
     22  C15        2.3860    0.0170    0.4390 C.ar    1  UNL1       -0.0401
     23  C16        1.6720   -0.4000   -0.6840 C.ar    1  UNL1        0.0233
     24 H          -4.2360   -2.6794    0.6786 H       1  UNL1        0.1423
     25 H          -2.8090   -2.2887   -0.1691 H       1  UNL1        0.1423
     26 H          -5.7313   -1.0845    1.4218 H       1  UNL1        0.0636
     27 H          -6.4668    1.1952    1.6741 H       1  UNL1        0.0618
     28 H          -5.0710    2.9644    0.7393 H       1  UNL1        0.0618
     29 H          -3.0241    2.4344   -0.3950 H       1  UNL1        0.0621
     30 H          -1.6308    0.9458   -1.3967 H       1  UNL1        0.0317
     31 H          -2.1735   -0.7390   -1.5602 H       1  UNL1        0.0317
     32 H          -1.0614   -1.3301    0.5145 H       1  UNL1        0.0332
     33 H          -0.5637    0.2812    0.7919 H       1  UNL1        0.0332
     34 H           1.6056   -1.3600   -3.7278 H       1  UNL1        0.1889
     35 H           4.2100   -0.7623   -2.7717 H       1  UNL1        0.0639
     36 H           5.4112   -0.0484   -0.8461 H       1  UNL1        0.0625
     37 H           6.4634    0.6057    0.8459 H       1  UNL1        0.1923
     38 H           1.8750    0.2277    1.3105 H       1  UNL1        0.0632
@<TRIPOS>BOND
     1     1     2    1
     2     2     3   ar
     3     2     7   ar
     4     3     4   ar
     5     4     5   ar
     6     5     6   ar
     7     6     7   ar
     8     7     8    1
     9     8     9    1
    10     9    10    1
    11    10    11   ar
    12    10    23   ar
    13    11    12   ar
    14    12    13   ar
    15    13    14   ar
    16    13    23   ar
    17    14    15   ar
    18    15    16   ar
    19    16    17    1
    20    16    22   ar
    21    17    18   ar
    22    17    21   ar
    23    18    19   ar
    24    19    20   ar
    25    20    21   ar
    26    22    23   ar
    27     1    24    1
    28     1    25    1
    29     3    26    1
    30     4    27    1
    31     5    28    1
    32     6    29    1
    33     8    30    1
    34     8    31    1
    35     9    32    1
    36     9    33    1
    37    12    34    1
    38    14    35    1
    39    15    36    1
    40    21    37    1
    41    22    38    1
@<TRIPOS>MOLECULE
../data/bude_mols_rdkit_confs2/molecule_73.pdb
 38 41 0 0 0
SMALL
GASTEIGER

@<TRIPOS>ATOM
      1  N1        -4.6490   -1.7520   -0.2010 N.pl3   1  UNL1       -0.3577
      2  C1        -4.4310   -0.3950    0.1100 C.ar    1  UNL1        0.0278
      3  C2        -5.5600    0.3780    0.3540 C.ar    1  UNL1       -0.0408
      4  C3        -5.4150    1.7140    0.6640 C.ar    1  UNL1       -0.0600
      5  C4        -4.1530    2.2670    0.7270 C.ar    1  UNL1       -0.0614
      6  C5        -3.0540    1.4700    0.4790 C.ar    1  UNL1       -0.0568
      7  C6        -3.1630    0.1520    0.1720 C.ar    1  UNL1       -0.0264
      8  C7        -2.0200   -0.7460   -0.1030 C.3     1  UNL1       -0.0205
      9  C8        -0.6940   -0.0370   -0.0060 C.3     1  UNL1       -0.0040
     10  C9         0.3670   -1.0340   -0.3000 C.ar    1  UNL1        0.0708
     11  N2         0.2210   -2.3560   -0.6060 N.ar    1  UNL1       -0.1777
     12  N3         1.3970   -2.9150   -0.8030 N.ar    1  UNL1       -0.2767
     13  C10        2.3440   -1.9520   -0.6250 C.ar    1  UNL1        0.0660
     14  C11        3.7100   -2.0010   -0.7100 C.ar    1  UNL1       -0.0356
     15  C12        4.4700   -0.8540   -0.4790 C.ar    1  UNL1       -0.0490
     16  C13        3.8540    0.3350   -0.1630 C.ar    1  UNL1        0.0212
     17  C14        4.6570    1.5270    0.0760 C.ar    1  UNL1        0.1794
     18  N4         4.1950    2.7650    0.3950 N.ar    1  UNL1       -0.1084
     19  N5         5.2350    3.5640    0.5290 N.ar    1  UNL1       -0.0229
     20  N6         6.3300    2.8900    0.3100 N.ar    1  UNL1       -0.0464
     21  N7         5.9880    1.6560    0.0350 N.ar    1  UNL1       -0.2388
     22  C15        2.4770    0.3450   -0.0870 C.ar    1  UNL1       -0.0401
     23  C16        1.7100   -0.7650   -0.3090 C.ar    1  UNL1        0.0233
     24 H          -5.5663   -2.1077   -0.2363 H       1  UNL1        0.1423
     25 H          -3.8840   -2.3444   -0.3829 H       1  UNL1        0.1423
     26 H          -6.5001   -0.0447    0.3036 H       1  UNL1        0.0636
     27 H          -6.2465    2.2970    0.8479 H       1  UNL1        0.0618
     28 H          -4.0319    3.2657    0.9570 H       1  UNL1        0.0618
     29 H          -2.1135    1.8919    0.5288 H       1  UNL1        0.0621
     30 H          -2.1254   -1.1432   -1.0909 H       1  UNL1        0.0317
     31 H          -2.0297   -1.5206    0.6351 H       1  UNL1        0.0317
     32 H          -0.5618    0.3575    0.9798 H       1  UNL1        0.0332
     33 H          -0.6497    0.7766   -0.6995 H       1  UNL1        0.0332
     34 H           1.5618   -3.8571   -1.0364 H       1  UNL1        0.1889
     35 H           4.1789   -2.8896   -0.9458 H       1  UNL1        0.0639
     36 H           5.4989   -0.8976   -0.5455 H       1  UNL1        0.0625
     37 H           6.6188    0.9289   -0.1718 H       1  UNL1        0.1923
     38 H           2.0036    1.2313    0.1483 H       1  UNL1        0.0632
@<TRIPOS>BOND
     1     1     2    1
     2     2     3   ar
     3     2     7   ar
     4     3     4   ar
     5     4     5   ar
     6     5     6   ar
     7     6     7   ar
     8     7     8    1
     9     8     9    1
    10     9    10    1
    11    10    11   ar
    12    10    23   ar
    13    11    12   ar
    14    12    13   ar
    15    13    14   ar
    16    13    23   ar
    17    14    15   ar
    18    15    16   ar
    19    16    17    1
    20    16    22   ar
    21    17    18   ar
    22    17    21   ar
    23    18    19   ar
    24    19    20   ar
    25    20    21   ar
    26    22    23   ar
    27     1    24    1
    28     1    25    1
    29     3    26    1
    30     4    27    1
    31     5    28    1
    32     6    29    1
    33     8    30    1
    34     8    31    1
    35     9    32    1
    36     9    33    1
    37    12    34    1
    38    14    35    1
    39    15    36    1
    40    21    37    1
    41    22    38    1
@<TRIPOS>MOLECULE
../data/bude_mols_rdkit_confs2/molecule_73.pdb
 38 41 0 0 0
SMALL
GASTEIGER

@<TRIPOS>ATOM
      1  N1        -2.7240   -2.3170    0.4600 N.pl3   1  UNL1       -0.3577
      2  C1        -3.3730   -1.0510    0.3010 C.ar    1  UNL1        0.0278
      3  C2        -4.4340   -1.0210   -0.6150 C.ar    1  UNL1       -0.0408
      4  C3        -5.1500    0.1660   -0.7420 C.ar    1  UNL1       -0.0600
      5  C4        -4.8050    1.2550    0.0180 C.ar    1  UNL1       -0.0614
      6  C5        -3.7640    1.2240    0.9100 C.ar    1  UNL1       -0.0568
      7  C6        -3.0550    0.0530    1.0360 C.ar    1  UNL1       -0.0264
      8  C7        -1.8600    0.0460    1.8900 C.3     1  UNL1       -0.0205
      9  C8        -0.6260    0.6340    1.3340 C.3     1  UNL1       -0.0040
     10  C9        -0.1020    0.0840    0.0660 C.ar    1  UNL1        0.0708
     11  N2        -0.7850   -0.4850   -0.9220 N.ar    1  UNL1       -0.1777
     12  N3         0.0110   -0.8760   -1.9090 N.ar    1  UNL1       -0.2767
     13  C10        1.2660   -0.5570   -1.5700 C.ar    1  UNL1        0.0660
     14  C11        2.5060   -0.6890   -2.1520 C.ar    1  UNL1       -0.0356
     15  C12        3.6600   -0.2610   -1.5640 C.ar    1  UNL1       -0.0490
     16  C13        3.6370    0.3530   -0.3080 C.ar    1  UNL1        0.0212
     17  C14        4.8510    0.7950    0.3700 C.ar    1  UNL1        0.1794
     18  N4         4.9470    1.4460    1.5470 N.ar    1  UNL1       -0.1084
     19  N5         6.2140    1.6900    1.8350 N.ar    1  UNL1       -0.0229
     20  N6         6.9450    1.1880    0.8300 N.ar    1  UNL1       -0.0464
     21  N7         6.1130    0.6530   -0.0430 N.ar    1  UNL1       -0.2388
     22  C15        2.3980    0.4950    0.2830 C.ar    1  UNL1       -0.0401
     23  C16        1.2310    0.0590   -0.3130 C.ar    1  UNL1        0.0233
     24 H          -2.9937   -3.0819   -0.0980 H       1  UNL1        0.1423
     25 H          -2.0080   -2.4227    1.1274 H       1  UNL1        0.1423
     26 H          -4.6763   -1.8520   -1.1769 H       1  UNL1        0.0636
     27 H          -5.9379    0.2267   -1.4058 H       1  UNL1        0.0618
     28 H          -5.3473    2.1269   -0.0852 H       1  UNL1        0.0618
     29 H          -3.5199    2.0555    1.4704 H       1  UNL1        0.0621
     30 H          -1.6473   -0.9733    2.1365 H       1  UNL1        0.0317
     31 H          -2.1124    0.6724    2.7199 H       1  UNL1        0.0317
     32 H           0.1409    0.5187    2.0712 H       1  UNL1        0.0332
     33 H          -0.8956    1.6416    1.0955 H       1  UNL1        0.0332
     34 H          -0.2708   -1.3207   -2.7409 H       1  UNL1        0.1889
     35 H           2.5659   -1.1346   -3.0809 H       1  UNL1        0.0639
     36 H           4.5601   -0.3918   -2.0516 H       1  UNL1        0.0625
     37 H           6.3841    0.2117   -0.8802 H       1  UNL1        0.1923
     38 H           2.3412    0.9461    1.2095 H       1  UNL1        0.0632
@<TRIPOS>BOND
     1     1     2    1
     2     2     3   ar
     3     2     7   ar
     4     3     4   ar
     5     4     5   ar
     6     5     6   ar
     7     6     7   ar
     8     7     8    1
     9     8     9    1
    10     9    10    1
    11    10    11   ar
    12    10    23   ar
    13    11    12   ar
    14    12    13   ar
    15    13    14   ar
    16    13    23   ar
    17    14    15   ar
    18    15    16   ar
    19    16    17    1
    20    16    22   ar
    21    17    18   ar
    22    17    21   ar
    23    18    19   ar
    24    19    20   ar
    25    20    21   ar
    26    22    23   ar
    27     1    24    1
    28     1    25    1
    29     3    26    1
    30     4    27    1
    31     5    28    1
    32     6    29    1
    33     8    30    1
    34     8    31    1
    35     9    32    1
    36     9    33    1
    37    12    34    1
    38    14    35    1
    39    15    36    1
    40    21    37    1
    41    22    38    1
