@<TRIPOS>MOLECULE
../data/bude_mols_rdkit_confs2/molecule_77.pdb
 46 49 0 0 0
SMALL
GASTEIGER

@<TRIPOS>ATOM
      1  C1         7.1900   -1.4190    0.9960 C.3     1  UNL1       -0.0349
      2  C2         6.7580   -0.4850   -0.0530 C.ar    1  UNL1        0.0129
      3  C3         7.5450    0.1110   -1.0310 C.ar    1  UNL1        0.1274
      4  O1         6.7810    0.8750   -1.7680 O.2     1  UNL1       -0.3624
      5  N1         5.5810    0.8060   -1.3320 N.ar    1  UNL1       -0.0815
      6  C4         5.4780   -0.0040   -0.2850 C.ar    1  UNL1        0.1034
      7  C5         4.2550   -0.3400    0.4840 C.3     1  UNL1        0.0578
      8  N2         3.1270    0.4180   -0.1240 N.am    1  UNL1       -0.3056
      9  C6         1.8320    0.2790    0.4040 C.2     1  UNL1        0.2472
     10  O2         1.6900   -0.5110    1.4050 O.2     1  UNL1       -0.2701
     11  C7         0.6730    0.9600   -0.0990 C.ar    1  UNL1        0.0721
     12  C8        -0.4870    0.8890    0.6670 C.ar    1  UNL1       -0.0433
     13  C9        -1.6730    1.5070    0.3280 C.ar    1  UNL1       -0.0406
     14  C10       -2.8220    1.3630    1.2300 C.3     1  UNL1        0.0171
     15  C11       -3.4690    0.0960    1.0310 C.ar    1  UNL1        0.0736
     16  N3        -3.0670   -0.9390    1.8400 N.ar    1  UNL1       -0.1750
     17  N4        -3.5370   -2.1580    1.7280 N.ar    1  UNL1       -0.2425
     18  C12       -4.4560   -2.5220    0.8160 C.ar    1  UNL1        0.2725
     19  O3        -4.8890   -3.7170    0.7370 O.2     1  UNL1       -0.2658
     20  C13       -4.9150   -1.5420   -0.0360 C.ar    1  UNL1        0.0496
     21  C14       -5.8700   -1.8790   -0.9710 C.ar    1  UNL1       -0.0487
     22  C15       -6.3320   -0.8840   -1.8020 C.ar    1  UNL1       -0.0610
     23  C16       -5.8280    0.3990   -1.6690 C.ar    1  UNL1       -0.0611
     24  C17       -4.8780    0.7020   -0.7300 C.ar    1  UNL1       -0.0521
     25  C18       -4.4030   -0.2720    0.1060 C.ar    1  UNL1        0.0106
     26  C19       -1.6910    2.2230   -0.8220 C.ar    1  UNL1       -0.0555
     27  C20       -0.5460    2.3260   -1.6320 C.ar    1  UNL1       -0.0254
     28  C21        0.6140    1.6930   -1.2550 C.ar    1  UNL1        0.1355
     29  F1         1.7230    1.7860   -2.0530 F       1  UNL1       -0.2047
     30 H           8.2421   -1.5926    0.9078 H       1  UNL1        0.0279
     31 H           6.6653   -2.3451    0.8871 H       1  UNL1        0.0279
     32 H           6.9771   -0.9993    1.9570 H       1  UNL1        0.0279
     33 H           8.5603   -0.0260   -1.1548 H       1  UNL1        0.1060
     34 H           4.3770   -0.0558    1.5083 H       1  UNL1        0.0528
     35 H           4.0648   -1.3925    0.4520 H       1  UNL1        0.0528
     36 H           3.2874    1.0133   -0.8916 H       1  UNL1        0.1494
     37 H          -0.4582    0.3411    1.5411 H       1  UNL1        0.0629
     38 H          -3.5216    2.1489    1.0356 H       1  UNL1        0.0377
     39 H          -2.4744    1.4165    2.2406 H       1  UNL1        0.0377
     40 H          -3.1982   -2.8453    2.3461 H       1  UNL1        0.1921
     41 H          -6.2265   -2.8446   -1.0454 H       1  UNL1        0.0625
     42 H          -7.0467   -1.0918   -2.5169 H       1  UNL1        0.0618
     43 H          -6.1764    1.1443   -2.2920 H       1  UNL1        0.0618
     44 H          -4.5196    1.6667   -0.6527 H       1  UNL1        0.0624
     45 H          -2.5597    2.7009   -1.1084 H       1  UNL1        0.0621
     46 H          -0.5768    2.8745   -2.5056 H       1  UNL1        0.0646
@<TRIPOS>BOND
     1     1     2    1
     2     2     3   ar
     3     2     6   ar
     4     3     4   ar
     5     4     5   ar
     6     5     6   ar
     7     6     7    1
     8     7     8    1
     9     8     9   am
    10     9    10    2
    11     9    11    1
    12    11    12   ar
    13    11    28   ar
    14    12    13   ar
    15    13    14    1
    16    13    26   ar
    17    14    15    1
    18    15    16   ar
    19    15    25   ar
    20    16    17   ar
    21    17    18   ar
    22    18    19    2
    23    18    20   ar
    24    20    21   ar
    25    20    25   ar
    26    21    22   ar
    27    22    23   ar
    28    23    24   ar
    29    24    25   ar
    30    26    27   ar
    31    27    28   ar
    32    28    29    1
    33     1    30    1
    34     1    31    1
    35     1    32    1
    36     3    33    1
    37     7    34    1
    38     7    35    1
    39     8    36    1
    40    12    37    1
    41    14    38    1
    42    14    39    1
    43    17    40    1
    44    21    41    1
    45    22    42    1
    46    23    43    1
    47    24    44    1
    48    26    45    1
    49    27    46    1
@<TRIPOS>MOLECULE
../data/bude_mols_rdkit_confs2/molecule_77.pdb
 46 49 0 0 0
SMALL
GASTEIGER

@<TRIPOS>ATOM
      1  C1         6.4880    1.7040   -0.9980 C.3     1  UNL1       -0.0349
      2  C2         5.0740    1.4720   -1.3570 C.ar    1  UNL1        0.0129
      3  C3         4.3780    2.1460   -2.3160 C.ar    1  UNL1        0.1274
      4  O1         3.1660    1.6600   -2.3390 O.2     1  UNL1       -0.3624
      5  N1         3.0330    0.7300   -1.4720 N.ar    1  UNL1       -0.0815
      6  C4         4.1880    0.5570   -0.8190 C.ar    1  UNL1        0.1034
      7  C5         4.5190   -0.3990    0.2660 C.3     1  UNL1        0.0578
      8  N2         3.3200   -1.1950    0.5570 N.am    1  UNL1       -0.3056
      9  C6         2.1280   -0.5850    0.9880 C.2     1  UNL1        0.2472
     10  O2         2.1840    0.6930    1.0980 O.2     1  UNL1       -0.2701
     11  C7         0.8810   -1.2720    1.3060 C.ar    1  UNL1        0.0721
     12  C8        -0.2530   -0.5060    1.6130 C.ar    1  UNL1       -0.0433
     13  C9        -1.4690   -1.0460    1.9160 C.ar    1  UNL1       -0.0406
     14  C10       -2.6990   -0.2420    2.2290 C.3     1  UNL1        0.0171
     15  C11       -3.6250   -0.3410    1.1420 C.ar    1  UNL1        0.0736
     16  N3        -4.6090   -1.2910    1.2390 N.ar    1  UNL1       -0.1750
     17  N4        -5.4950   -1.5180    0.2920 N.ar    1  UNL1       -0.2425
     18  C12       -5.4530   -0.7920   -0.8370 C.ar    1  UNL1        0.2725
     19  O3        -6.2860   -0.9780   -1.7770 O.2     1  UNL1       -0.2658
     20  C13       -4.5010    0.1890   -1.0290 C.ar    1  UNL1        0.0496
     21  C14       -4.4220    0.9600   -2.1460 C.ar    1  UNL1       -0.0487
     22  C15       -3.4610    1.9500   -2.3040 C.ar    1  UNL1       -0.0610
     23  C16       -2.5490    2.1660   -1.2940 C.ar    1  UNL1       -0.0611
     24  C17       -2.6370    1.3750   -0.1600 C.ar    1  UNL1       -0.0521
     25  C18       -3.5790    0.4010   -0.0030 C.ar    1  UNL1        0.0106
     26  C19       -1.6320   -2.4360    1.9310 C.ar    1  UNL1       -0.0555
     27  C20       -0.5400   -3.1920    1.6350 C.ar    1  UNL1       -0.0254
     28  C21        0.7040   -2.6290    1.3260 C.ar    1  UNL1        0.1355
     29  F1         1.7300   -3.4560    1.0510 F       1  UNL1       -0.2047
     30 H           6.8870    2.4872   -1.6082 H       1  UNL1        0.0279
     31 H           7.0484    0.8066   -1.1579 H       1  UNL1        0.0279
     32 H           6.5528    1.9862    0.0321 H       1  UNL1        0.0279
     33 H           4.7427    2.9030   -2.9152 H       1  UNL1        0.1060
     34 H           4.8194    0.1370    1.1420 H       1  UNL1        0.0528
     35 H           5.3225   -1.0377   -0.0362 H       1  UNL1        0.0528
     36 H           3.3509   -2.1730    0.4485 H       1  UNL1        0.1494
     37 H          -0.1629    0.5221    1.6096 H       1  UNL1        0.0629
     38 H          -2.4276    0.7828    2.3737 H       1  UNL1        0.0377
     39 H          -3.1544   -0.6204    3.1202 H       1  UNL1        0.0377
     40 H          -6.1818   -2.2134    0.4104 H       1  UNL1        0.1921
     41 H          -5.1025    0.8035   -2.9059 H       1  UNL1        0.0625
     42 H          -3.4304    2.5163   -3.1662 H       1  UNL1        0.0618
     43 H          -1.8229    2.8944   -1.3796 H       1  UNL1        0.0618
     44 H          -1.9581    1.5299    0.6016 H       1  UNL1        0.0624
     45 H          -2.5412   -2.8689    2.1568 H       1  UNL1        0.0621
     46 H          -0.6324   -4.2199    1.6384 H       1  UNL1        0.0646
@<TRIPOS>BOND
     1     1     2    1
     2     2     3   ar
     3     2     6   ar
     4     3     4   ar
     5     4     5   ar
     6     5     6   ar
     7     6     7    1
     8     7     8    1
     9     8     9   am
    10     9    10    2
    11     9    11    1
    12    11    12   ar
    13    11    28   ar
    14    12    13   ar
    15    13    14    1
    16    13    26   ar
    17    14    15    1
    18    15    16   ar
    19    15    25   ar
    20    16    17   ar
    21    17    18   ar
    22    18    19    2
    23    18    20   ar
    24    20    21   ar
    25    20    25   ar
    26    21    22   ar
    27    22    23   ar
    28    23    24   ar
    29    24    25   ar
    30    26    27   ar
    31    27    28   ar
    32    28    29    1
    33     1    30    1
    34     1    31    1
    35     1    32    1
    36     3    33    1
    37     7    34    1
    38     7    35    1
    39     8    36    1
    40    12    37    1
    41    14    38    1
    42    14    39    1
    43    17    40    1
    44    21    41    1
    45    22    42    1
    46    23    43    1
    47    24    44    1
    48    26    45    1
    49    27    46    1
@<TRIPOS>MOLECULE
../data/bude_mols_rdkit_confs2/molecule_77.pdb
 46 49 0 0 0
SMALL
GASTEIGER

@<TRIPOS>ATOM
      1  C1        -6.5850    1.8090   -0.1100 C.3     1  UNL1       -0.0349
      2  C2        -5.6220    1.2140    0.8140 C.ar    1  UNL1        0.0129
      3  C3        -5.4780    1.4370    2.1590 C.ar    1  UNL1        0.1274
      4  O1        -4.5000    0.6990    2.5770 O.2     1  UNL1       -0.3624
      5  N1        -4.0030    0.0160    1.5980 N.ar    1  UNL1       -0.0815
      6  C4        -4.6500    0.2820    0.4610 C.ar    1  UNL1        0.1034
      7  C5        -4.3740   -0.3040   -0.8520 C.3     1  UNL1        0.0578
      8  N2        -3.2410   -1.2340   -0.7150 N.am    1  UNL1       -0.3056
      9  C6        -2.0160   -0.7100   -0.2830 C.2     1  UNL1        0.2472
     10  O2        -1.9740    0.5450   -0.0350 O.2     1  UNL1       -0.2701
     11  C7        -0.7940   -1.4820   -0.0940 C.ar    1  UNL1        0.0721
     12  C8         0.2810   -0.8830    0.5940 C.ar    1  UNL1       -0.0433
     13  C9         1.4440   -1.5500    0.8220 C.ar    1  UNL1       -0.0406
     14  C10        2.6160   -0.9620    1.5390 C.3     1  UNL1        0.0171
     15  C11        3.7200   -0.5670    0.6500 C.ar    1  UNL1        0.0736
     16  N3         4.7430   -1.4380    0.4080 N.ar    1  UNL1       -0.1750
     17  N4         5.7330   -1.1940   -0.4030 N.ar    1  UNL1       -0.2425
     18  C12        5.7760   -0.0210   -1.0540 C.ar    1  UNL1        0.2725
     19  O3         6.7390    0.2180   -1.8440 O.2     1  UNL1       -0.2658
     20  C13        4.7950    0.9330   -0.8830 C.ar    1  UNL1        0.0496
     21  C14        4.8200    2.1530   -1.5240 C.ar    1  UNL1       -0.0487
     22  C15        3.8540    3.1120   -1.3420 C.ar    1  UNL1       -0.0610
     23  C16        2.8290    2.8160   -0.4770 C.ar    1  UNL1       -0.0611
     24  C17        2.7840    1.6060    0.1720 C.ar    1  UNL1       -0.0521
     25  C18        3.7520    0.6330   -0.0060 C.ar    1  UNL1        0.0106
     26  C19        1.5820   -2.8690    0.3640 C.ar    1  UNL1       -0.0555
     27  C20        0.5660   -3.4960   -0.3090 C.ar    1  UNL1       -0.0254
     28  C21       -0.6050   -2.7540   -0.5120 C.ar    1  UNL1        0.1355
     29  F1        -1.6000   -3.4010   -1.2000 F       1  UNL1       -0.2047
     30 H          -7.2149    2.4911    0.4218 H       1  UNL1        0.0279
     31 H          -7.1837    1.0373   -0.5470 H       1  UNL1        0.0279
     32 H          -6.0615    2.3343   -0.8814 H       1  UNL1        0.0279
     33 H          -6.0467    2.0777    2.7345 H       1  UNL1        0.1060
     34 H          -4.1249    0.4695   -1.5481 H       1  UNL1        0.0528
     35 H          -5.2367   -0.8249   -1.2116 H       1  UNL1        0.0528
     36 H          -3.3410   -2.1917   -0.9201 H       1  UNL1        0.1494
     37 H           0.1828    0.0867    0.9333 H       1  UNL1        0.0629
     38 H           2.9853   -1.6876    2.2333 H       1  UNL1        0.0377
     39 H           2.2710   -0.0714    2.0214 H       1  UNL1        0.0377
     40 H           6.4425   -1.8633   -0.5370 H       1  UNL1        0.1921
     41 H           5.5995    2.3548   -2.1695 H       1  UNL1        0.0625
     42 H           3.8965    4.0177   -1.8348 H       1  UNL1        0.0618
     43 H           2.0838    3.5108   -0.3126 H       1  UNL1        0.0618
     44 H           2.0000    1.4157    0.8156 H       1  UNL1        0.0624
     45 H           2.4641   -3.3760    0.5369 H       1  UNL1        0.0621
     46 H           0.6588   -4.4659   -0.6491 H       1  UNL1        0.0646
@<TRIPOS>BOND
     1     1     2    1
     2     2     3   ar
     3     2     6   ar
     4     3     4   ar
     5     4     5   ar
     6     5     6   ar
     7     6     7    1
     8     7     8    1
     9     8     9   am
    10     9    10    2
    11     9    11    1
    12    11    12   ar
    13    11    28   ar
    14    12    13   ar
    15    13    14    1
    16    13    26   ar
    17    14    15    1
    18    15    16   ar
    19    15    25   ar
    20    16    17   ar
    21    17    18   ar
    22    18    19    2
    23    18    20   ar
    24    20    21   ar
    25    20    25   ar
    26    21    22   ar
    27    22    23   ar
    28    23    24   ar
    29    24    25   ar
    30    26    27   ar
    31    27    28   ar
    32    28    29    1
    33     1    30    1
    34     1    31    1
    35     1    32    1
    36     3    33    1
    37     7    34    1
    38     7    35    1
    39     8    36    1
    40    12    37    1
    41    14    38    1
    42    14    39    1
    43    17    40    1
    44    21    41    1
    45    22    42    1
    46    23    43    1
    47    24    44    1
    48    26    45    1
    49    27    46    1
@<TRIPOS>MOLECULE
../data/bude_mols_rdkit_confs2/molecule_77.pdb
 46 49 0 0 0
SMALL
GASTEIGER

@<TRIPOS>ATOM
      1  C1         6.9130    1.2770    1.3840 C.3     1  UNL1       -0.0349
      2  C2         6.0200    0.9480    0.2530 C.ar    1  UNL1        0.0129
      3  C3         6.1580    1.4100   -1.0150 C.ar    1  UNL1        0.1274
      4  O1         5.1680    0.8920   -1.7290 O.2     1  UNL1       -0.3624
      5  N1         4.4310    0.1400   -0.9790 N.ar    1  UNL1       -0.0815
      6  C4         4.9040    0.1260    0.2820 C.ar    1  UNL1        0.1034
      7  C5         4.3550   -0.6080    1.4600 C.3     1  UNL1        0.0578
      8  N2         3.1710   -1.3450    1.0000 N.am    1  UNL1       -0.3056
      9  C6         2.0880   -0.6400    0.4660 C.2     1  UNL1        0.2472
     10  O2         2.1840    0.6130    0.3990 O.2     1  UNL1       -0.2701
     11  C7         0.8700   -1.2660   -0.0130 C.ar    1  UNL1        0.0721
     12  C8        -0.0500   -0.4990   -0.7450 C.ar    1  UNL1       -0.0433
     13  C9        -1.2260   -1.0000   -1.2600 C.ar    1  UNL1       -0.0406
     14  C10       -2.1240   -0.1140   -2.0450 C.3     1  UNL1        0.0171
     15  C11       -2.9040    0.8390   -1.2280 C.ar    1  UNL1        0.0736
     16  N3        -2.4160    2.1050   -1.0120 N.ar    1  UNL1       -0.1750
     17  N4        -3.0450    2.9790   -0.2470 N.ar    1  UNL1       -0.2425
     18  C12       -4.2010    2.6860    0.3660 C.ar    1  UNL1        0.2725
     19  O3        -4.8150    3.5190    1.1040 O.2     1  UNL1       -0.2658
     20  C13       -4.7670    1.4360    0.2030 C.ar    1  UNL1        0.0496
     21  C14       -5.9620    1.1340    0.8110 C.ar    1  UNL1       -0.0487
     22  C15       -6.5340   -0.1000    0.6300 C.ar    1  UNL1       -0.0610
     23  C16       -5.8820   -1.0060   -0.1650 C.ar    1  UNL1       -0.0611
     24  C17       -4.6830   -0.6970   -0.7720 C.ar    1  UNL1       -0.0521
     25  C18       -4.0830    0.5310   -0.6100 C.ar    1  UNL1        0.0106
     26  C19       -1.4720   -2.3250   -1.0200 C.ar    1  UNL1       -0.0555
     27  C20       -0.5790   -3.1090   -0.2970 C.ar    1  UNL1       -0.0254
     28  C21        0.6040   -2.5870    0.2160 C.ar    1  UNL1        0.1355
     29  F1         1.4320   -3.4230    0.9310 F       1  UNL1       -0.2047
     30 H           7.6859    1.9363    1.0481 H       1  UNL1        0.0279
     31 H           7.3514    0.3785    1.7654 H       1  UNL1        0.0279
     32 H           6.3481    1.7544    2.1573 H       1  UNL1        0.0279
     33 H           6.8949    2.0452   -1.3592 H       1  UNL1        0.1060
     34 H           4.0801    0.0847    2.2278 H       1  UNL1        0.0528
     35 H           5.0854   -1.2773    1.8643 H       1  UNL1        0.0528
     36 H           3.1401   -2.3267    1.0670 H       1  UNL1        0.1494
     37 H           0.1667    0.4970   -0.9067 H       1  UNL1        0.0629
     38 H          -2.8102   -0.7292   -2.5887 H       1  UNL1        0.0377
     39 H          -1.4955    0.4719   -2.6827 H       1  UNL1        0.0377
     40 H          -2.6528    3.8735   -0.1230 H       1  UNL1        0.1921
     41 H          -6.4299    1.8366    1.4047 H       1  UNL1        0.0625
     42 H          -7.4311   -0.3394    1.0805 H       1  UNL1        0.0618
     43 H          -6.2971   -1.9393   -0.3125 H       1  UNL1        0.0618
     44 H          -4.2229   -1.4061   -1.3641 H       1  UNL1        0.0624
     45 H          -2.3387   -2.7515   -1.3833 H       1  UNL1        0.0621
     46 H          -0.7999   -4.1043   -0.1369 H       1  UNL1        0.0646
@<TRIPOS>BOND
     1     1     2    1
     2     2     3   ar
     3     2     6   ar
     4     3     4   ar
     5     4     5   ar
     6     5     6   ar
     7     6     7    1
     8     7     8    1
     9     8     9   am
    10     9    10    2
    11     9    11    1
    12    11    12   ar
    13    11    28   ar
    14    12    13   ar
    15    13    14    1
    16    13    26   ar
    17    14    15    1
    18    15    16   ar
    19    15    25   ar
    20    16    17   ar
    21    17    18   ar
    22    18    19    2
    23    18    20   ar
    24    20    21   ar
    25    20    25   ar
    26    21    22   ar
    27    22    23   ar
    28    23    24   ar
    29    24    25   ar
    30    26    27   ar
    31    27    28   ar
    32    28    29    1
    33     1    30    1
    34     1    31    1
    35     1    32    1
    36     3    33    1
    37     7    34    1
    38     7    35    1
    39     8    36    1
    40    12    37    1
    41    14    38    1
    42    14    39    1
    43    17    40    1
    44    21    41    1
    45    22    42    1
    46    23    43    1
    47    24    44    1
    48    26    45    1
    49    27    46    1
@<TRIPOS>MOLECULE
../data/bude_mols_rdkit_confs2/molecule_77.pdb
 46 49 0 0 0
SMALL
GASTEIGER

@<TRIPOS>ATOM
      1  C1         6.3900   -1.7490   -1.6150 C.3     1  UNL1       -0.0349
      2  C2         4.9150   -1.9330   -1.5520 C.ar    1  UNL1        0.0129
      3  C3         4.2110   -3.1200   -1.5420 C.ar    1  UNL1        0.1274
      4  O1         2.9480   -2.8330   -1.4800 O.2     1  UNL1       -0.3624
      5  N1         2.7730   -1.5590   -1.4480 N.ar    1  UNL1       -0.0815
      6  C4         3.9610   -0.9300   -1.4900 C.ar    1  UNL1        0.1034
      7  C5         4.2780    0.5030   -1.4780 C.3     1  UNL1        0.0578
      8  N2         3.0160    1.2660   -1.4070 N.am    1  UNL1       -0.3056
      9  C6         2.1370    1.1050   -0.3200 C.2     1  UNL1        0.2472
     10  O2         2.5230    0.2540    0.5760 O.2     1  UNL1       -0.2701
     11  C7         0.8920    1.7930   -0.1480 C.ar    1  UNL1        0.0721
     12  C8         0.0130    1.4280    0.8840 C.ar    1  UNL1       -0.0433
     13  C9        -1.1850    1.9990    1.1280 C.ar    1  UNL1       -0.0406
     14  C10       -2.1620    1.6590    2.1790 C.3     1  UNL1        0.0171
     15  C11       -3.3100    0.9360    1.6520 C.ar    1  UNL1        0.0736
     16  N3        -4.4270    1.6460    1.3430 N.ar    1  UNL1       -0.1750
     17  N4        -5.5020    1.1150    0.8230 N.ar    1  UNL1       -0.2425
     18  C12       -5.5710   -0.1920    0.5590 C.ar    1  UNL1        0.2725
     19  O3        -6.6320   -0.7080    0.0480 O.2     1  UNL1       -0.2658
     20  C13       -4.4950   -1.0080    0.8350 C.ar    1  UNL1        0.0496
     21  C14       -4.5700   -2.3660    0.5710 C.ar    1  UNL1       -0.0487
     22  C15       -3.4550   -3.1100    0.8900 C.ar    1  UNL1       -0.0610
     23  C16       -2.3250   -2.5410    1.4400 C.ar    1  UNL1       -0.0611
     24  C17       -2.2820   -1.1860    1.6890 C.ar    1  UNL1       -0.0521
     25  C18       -3.3670   -0.4100    1.3870 C.ar    1  UNL1        0.0106
     26  C19       -1.5720    3.0400    0.2760 C.ar    1  UNL1       -0.0555
     27  C20       -0.7420    3.4280   -0.7450 C.ar    1  UNL1       -0.0254
     28  C21        0.4940    2.8080   -0.9640 C.ar    1  UNL1        0.1355
     29  F1         1.2280    3.2830   -1.9930 F       1  UNL1       -0.2047
     30 H           6.8674   -2.7058   -1.6546 H       1  UNL1        0.0279
     31 H           6.7210   -1.2210   -0.7452 H       1  UNL1        0.0279
     32 H           6.6424   -1.1879   -2.4904 H       1  UNL1        0.0279
     33 H           4.6176   -4.0679   -1.5776 H       1  UNL1        0.1060
     34 H           4.8059    0.7625   -2.3718 H       1  UNL1        0.0528
     35 H           4.8918    0.7337   -0.6324 H       1  UNL1        0.0528
     36 H           2.7867    1.8950   -2.1288 H       1  UNL1        0.1494
     37 H           0.3073    0.6599    1.5072 H       1  UNL1        0.0629
     38 H          -2.5051    2.5637    2.6358 H       1  UNL1        0.0377
     39 H          -1.6727    1.0247    2.8883 H       1  UNL1        0.0377
     40 H          -6.2757    1.6897    0.6221 H       1  UNL1        0.1921
     41 H          -5.4129   -2.7958    0.1589 H       1  UNL1        0.0625
     42 H          -3.4656   -4.1264    0.7116 H       1  UNL1        0.0618
     43 H          -1.5094   -3.1317    1.6657 H       1  UNL1        0.0618
     44 H          -1.4369   -0.7599    2.1005 H       1  UNL1        0.0624
     45 H          -2.4782    3.5138    0.4154 H       1  UNL1        0.0621
     46 H          -1.0362    4.1966   -1.3676 H       1  UNL1        0.0646
@<TRIPOS>BOND
     1     1     2    1
     2     2     3   ar
     3     2     6   ar
     4     3     4   ar
     5     4     5   ar
     6     5     6   ar
     7     6     7    1
     8     7     8    1
     9     8     9   am
    10     9    10    2
    11     9    11    1
    12    11    12   ar
    13    11    28   ar
    14    12    13   ar
    15    13    14    1
    16    13    26   ar
    17    14    15    1
    18    15    16   ar
    19    15    25   ar
    20    16    17   ar
    21    17    18   ar
    22    18    19    2
    23    18    20   ar
    24    20    21   ar
    25    20    25   ar
    26    21    22   ar
    27    22    23   ar
    28    23    24   ar
    29    24    25   ar
    30    26    27   ar
    31    27    28   ar
    32    28    29    1
    33     1    30    1
    34     1    31    1
    35     1    32    1
    36     3    33    1
    37     7    34    1
    38     7    35    1
    39     8    36    1
    40    12    37    1
    41    14    38    1
    42    14    39    1
    43    17    40    1
    44    21    41    1
    45    22    42    1
    46    23    43    1
    47    24    44    1
    48    26    45    1
    49    27    46    1
@<TRIPOS>MOLECULE
../data/bude_mols_rdkit_confs2/molecule_77.pdb
 46 49 0 0 0
SMALL
GASTEIGER

@<TRIPOS>ATOM
      1  C1        -7.8400   -0.2290    0.7830 C.3     1  UNL1       -0.0349
      2  C2        -6.6110   -1.0630    0.6360 C.ar    1  UNL1        0.0129
      3  C3        -6.4360   -2.3850    0.9360 C.ar    1  UNL1        0.1274
      4  O1        -5.2170   -2.6760    0.6300 O.2     1  UNL1       -0.3624
      5  N1        -4.5820   -1.6330    0.1480 N.ar    1  UNL1       -0.0815
      6  C4        -5.4090   -0.5740    0.1250 C.ar    1  UNL1        0.1034
      7  C5        -5.1140    0.8020   -0.3250 C.3     1  UNL1        0.0578
      8  N2        -3.7820    0.9870   -0.8390 N.am    1  UNL1       -0.3056
      9  C6        -2.6210    0.7460   -0.0730 C.2     1  UNL1        0.2472
     10  O2        -2.8290    0.3540    1.1250 O.2     1  UNL1       -0.2701
     11  C7        -1.2430    0.9090   -0.5580 C.ar    1  UNL1        0.0721
     12  C8        -0.2300    0.2000    0.0770 C.ar    1  UNL1       -0.0433
     13  C9         1.0590    0.2370   -0.3480 C.ar    1  UNL1       -0.0406
     14  C10        2.1490   -0.5340    0.3260 C.3     1  UNL1        0.0171
     15  C11        3.4190    0.2110    0.4030 C.ar    1  UNL1        0.0736
     16  N3         3.4700    1.5460    0.4810 N.ar    1  UNL1       -0.1750
     17  N4         4.5780    2.2540    0.5110 N.ar    1  UNL1       -0.2425
     18  C12        5.7530    1.6310    0.4650 C.ar    1  UNL1        0.2725
     19  O3         6.8310    2.2760    0.4910 O.2     1  UNL1       -0.2658
     20  C13        5.8140    0.2400    0.3820 C.ar    1  UNL1        0.0496
     21  C14        7.0580   -0.3890    0.3470 C.ar    1  UNL1       -0.0487
     22  C15        7.1320   -1.7770    0.2800 C.ar    1  UNL1       -0.0610
     23  C16        5.9600   -2.4620    0.2530 C.ar    1  UNL1       -0.0611
     24  C17        4.7090   -1.8440    0.2870 C.ar    1  UNL1       -0.0521
     25  C18        4.6370   -0.4670    0.3520 C.ar    1  UNL1        0.0106
     26  C19        1.3530    1.0170   -1.4510 C.ar    1  UNL1       -0.0555
     27  C20        0.3950    1.7440   -2.1190 C.ar    1  UNL1       -0.0254
     28  C21       -0.9410    1.6760   -1.6440 C.ar    1  UNL1        0.1355
     29  F1        -1.8780    2.4130   -2.2960 F       1  UNL1       -0.2047
     30 H          -8.6278   -0.8243    1.1952 H       1  UNL1        0.0279
     31 H          -8.1369    0.1408   -0.1762 H       1  UNL1        0.0279
     32 H          -7.6364    0.5944    1.4353 H       1  UNL1        0.0279
     33 H          -7.1420   -3.0259    1.3307 H       1  UNL1        0.1060
     34 H          -5.2463    1.4617    0.5069 H       1  UNL1        0.0528
     35 H          -5.7845    1.0095   -1.1327 H       1  UNL1        0.0528
     36 H          -3.6759    1.2959   -1.7677 H       1  UNL1        0.1494
     37 H          -0.4660   -0.3750    0.9008 H       1  UNL1        0.0629
     38 H           2.3165   -1.4376   -0.2220 H       1  UNL1        0.0377
     39 H           1.8306   -0.7282    1.3289 H       1  UNL1        0.0377
     40 H           4.5385    3.2361    0.5670 H       1  UNL1        0.1921
     41 H           7.9226    0.1740    0.3708 H       1  UNL1        0.0625
     42 H           8.0405   -2.2657    0.2520 H       1  UNL1        0.0618
     43 H           5.9960   -3.4922    0.2049 H       1  UNL1        0.0618
     44 H           3.8468   -2.4106    0.2638 H       1  UNL1        0.0624
     45 H           2.3284    1.0553   -1.7860 H       1  UNL1        0.0621
     46 H           0.6398    2.3204   -2.9393 H       1  UNL1        0.0646
@<TRIPOS>BOND
     1     1     2    1
     2     2     3   ar
     3     2     6   ar
     4     3     4   ar
     5     4     5   ar
     6     5     6   ar
     7     6     7    1
     8     7     8    1
     9     8     9   am
    10     9    10    2
    11     9    11    1
    12    11    12   ar
    13    11    28   ar
    14    12    13   ar
    15    13    14    1
    16    13    26   ar
    17    14    15    1
    18    15    16   ar
    19    15    25   ar
    20    16    17   ar
    21    17    18   ar
    22    18    19    2
    23    18    20   ar
    24    20    21   ar
    25    20    25   ar
    26    21    22   ar
    27    22    23   ar
    28    23    24   ar
    29    24    25   ar
    30    26    27   ar
    31    27    28   ar
    32    28    29    1
    33     1    30    1
    34     1    31    1
    35     1    32    1
    36     3    33    1
    37     7    34    1
    38     7    35    1
    39     8    36    1
    40    12    37    1
    41    14    38    1
    42    14    39    1
    43    17    40    1
    44    21    41    1
    45    22    42    1
    46    23    43    1
    47    24    44    1
    48    26    45    1
    49    27    46    1
@<TRIPOS>MOLECULE
../data/bude_mols_rdkit_confs2/molecule_77.pdb
 46 49 0 0 0
SMALL
GASTEIGER

@<TRIPOS>ATOM
      1  C1         6.6600    0.7550   -1.5340 C.3     1  UNL1       -0.0349
      2  C2         5.3800   -0.0220   -1.5610 C.ar    1  UNL1        0.0129
      3  C3         4.9430   -0.8740   -2.5680 C.ar    1  UNL1        0.1274
      4  O1         3.7850   -1.3320   -2.1730 O.2     1  UNL1       -0.3624
      5  N1         3.4400   -0.8620   -1.0220 N.ar    1  UNL1       -0.0815
      6  C4         4.4010   -0.0360   -0.5930 C.ar    1  UNL1        0.1034
      7  C5         4.4500    0.7460    0.6840 C.3     1  UNL1        0.0578
      8  N2         3.2290    0.4760    1.4680 N.am    1  UNL1       -0.3056
      9  C6         1.9570    0.7650    0.9550 C.2     1  UNL1        0.2472
     10  O2         1.9260    1.2780   -0.2210 O.2     1  UNL1       -0.2701
     11  C7         0.6920    0.5440    1.6200 C.ar    1  UNL1        0.0721
     12  C8        -0.4830    1.0940    1.0910 C.ar    1  UNL1       -0.0433
     13  C9        -1.7260    0.9530    1.6530 C.ar    1  UNL1       -0.0406
     14  C10       -2.9140    1.6230    1.0080 C.3     1  UNL1        0.0171
     15  C11       -3.1280    0.9730   -0.2960 C.ar    1  UNL1        0.0736
     16  N3        -2.6070    1.5330   -1.4340 N.ar    1  UNL1       -0.1750
     17  N4        -2.7190    0.9910   -2.6240 N.ar    1  UNL1       -0.2425
     18  C12       -3.3590   -0.1600   -2.8050 C.ar    1  UNL1        0.2725
     19  O3        -3.4710   -0.6940   -3.9590 O.2     1  UNL1       -0.2658
     20  C13       -3.9170   -0.7980   -1.7210 C.ar    1  UNL1        0.0496
     21  C14       -4.5830   -1.9810   -1.9350 C.ar    1  UNL1       -0.0487
     22  C15       -5.1490   -2.6030   -0.8420 C.ar    1  UNL1       -0.0610
     23  C16       -5.0480   -2.0530    0.4160 C.ar    1  UNL1       -0.0611
     24  C17       -4.3690   -0.8600    0.5920 C.ar    1  UNL1       -0.0521
     25  C18       -3.7930   -0.2120   -0.4550 C.ar    1  UNL1        0.0106
     26  C19       -1.8280    0.2250    2.8130 C.ar    1  UNL1       -0.0555
     27  C20       -0.7090   -0.3370    3.3750 C.ar    1  UNL1       -0.0254
     28  C21        0.5330   -0.1730    2.7760 C.ar    1  UNL1        0.1355
     29  F1         1.6250   -0.7580    3.3590 F       1  UNL1       -0.2047
     30 H           7.2145    0.5600   -2.4281 H       1  UNL1        0.0279
     31 H           7.2387    0.4596   -0.6838 H       1  UNL1        0.0279
     32 H           6.4413    1.8005   -1.4708 H       1  UNL1        0.0279
     33 H           5.4330   -1.0990   -3.4480 H       1  UNL1        0.1060
     34 H           4.5081    1.7910    0.4613 H       1  UNL1        0.0528
     35 H           5.3108    0.4557    1.2495 H       1  UNL1        0.0528
     36 H           3.3095    0.0856    2.3682 H       1  UNL1        0.1494
     37 H          -0.4081    1.6421    0.2198 H       1  UNL1        0.0629
     38 H          -2.7161    2.6654    0.8696 H       1  UNL1        0.0377
     39 H          -3.7831    1.5298    1.6252 H       1  UNL1        0.0377
     40 H          -2.3201    1.4470   -3.4000 H       1  UNL1        0.1921
     41 H          -4.6569   -2.3893   -2.8799 H       1  UNL1        0.0625
     42 H          -5.6554   -3.4932   -0.9689 H       1  UNL1        0.0618
     43 H          -5.4772   -2.5287    1.2250 H       1  UNL1        0.0618
     44 H          -4.2985   -0.4538    1.5381 H       1  UNL1        0.0624
     45 H          -2.7482    0.1002    3.2632 H       1  UNL1        0.0621
     46 H          -0.7910   -0.8838    4.2464 H       1  UNL1        0.0646
@<TRIPOS>BOND
     1     1     2    1
     2     2     3   ar
     3     2     6   ar
     4     3     4   ar
     5     4     5   ar
     6     5     6   ar
     7     6     7    1
     8     7     8    1
     9     8     9   am
    10     9    10    2
    11     9    11    1
    12    11    12   ar
    13    11    28   ar
    14    12    13   ar
    15    13    14    1
    16    13    26   ar
    17    14    15    1
    18    15    16   ar
    19    15    25   ar
    20    16    17   ar
    21    17    18   ar
    22    18    19    2
    23    18    20   ar
    24    20    21   ar
    25    20    25   ar
    26    21    22   ar
    27    22    23   ar
    28    23    24   ar
    29    24    25   ar
    30    26    27   ar
    31    27    28   ar
    32    28    29    1
    33     1    30    1
    34     1    31    1
    35     1    32    1
    36     3    33    1
    37     7    34    1
    38     7    35    1
    39     8    36    1
    40    12    37    1
    41    14    38    1
    42    14    39    1
    43    17    40    1
    44    21    41    1
    45    22    42    1
    46    23    43    1
    47    24    44    1
    48    26    45    1
    49    27    46    1
@<TRIPOS>MOLECULE
../data/bude_mols_rdkit_confs2/molecule_77.pdb
 46 49 0 0 0
SMALL
GASTEIGER

@<TRIPOS>ATOM
      1  C1         7.1310    0.7890    0.2500 C.3     1  UNL1       -0.0349
      2  C2         5.7400    0.8490    0.7790 C.ar    1  UNL1        0.0129
      3  C3         5.3140    1.7390    1.7320 C.ar    1  UNL1        0.1274
      4  O1         4.0350    1.5030    1.9530 O.2     1  UNL1       -0.3624
      5  N1         3.6290    0.5160    1.1940 N.ar    1  UNL1       -0.0815
      6  C4         4.6560    0.0840    0.4530 C.ar    1  UNL1        0.1034
      7  C5         4.6150   -1.0050   -0.5200 C.3     1  UNL1        0.0578
      8  N2         3.2730   -1.6120   -0.6210 N.am    1  UNL1       -0.3056
      9  C6         2.1520   -0.8790   -0.9960 C.2     1  UNL1        0.2472
     10  O2         2.3610    0.3650   -1.2430 O.2     1  UNL1       -0.2701
     11  C7         0.7860   -1.3650   -1.1360 C.ar    1  UNL1        0.0721
     12  C8        -0.2420   -0.4420   -1.3760 C.ar    1  UNL1       -0.0433
     13  C9        -1.5650   -0.7790   -1.5230 C.ar    1  UNL1       -0.0406
     14  C10       -2.5810    0.2500   -1.7910 C.3     1  UNL1        0.0171
     15  C11       -3.0110    1.0480   -0.6610 C.ar    1  UNL1        0.0736
     16  N3        -2.3600    2.2180   -0.3860 N.ar    1  UNL1       -0.1750
     17  N4        -2.6370    2.9700    0.6540 N.ar    1  UNL1       -0.2425
     18  C12       -3.5900    2.6250    1.5200 C.ar    1  UNL1        0.2725
     19  O3        -3.8410    3.3670    2.5220 O.2     1  UNL1       -0.2658
     20  C13       -4.2980    1.4760    1.3330 C.ar    1  UNL1        0.0496
     21  C14       -5.3010    1.1300    2.2250 C.ar    1  UNL1       -0.0487
     22  C15       -6.0190   -0.0260    2.0060 C.ar    1  UNL1       -0.0610
     23  C16       -5.7260   -0.8150    0.9050 C.ar    1  UNL1       -0.0611
     24  C17       -4.7300   -0.4660    0.0260 C.ar    1  UNL1       -0.0521
     25  C18       -3.9920    0.6800    0.2160 C.ar    1  UNL1        0.0106
     26  C19       -1.8670   -2.1050   -1.4220 C.ar    1  UNL1       -0.0555
     27  C20       -0.8730   -3.0550   -1.1830 C.ar    1  UNL1       -0.0254
     28  C21        0.4460   -2.6940   -1.0400 C.ar    1  UNL1        0.1355
     29  F1         1.3980   -3.6460   -0.8130 F       1  UNL1       -0.2047
     30 H           7.7270    1.5381    0.7280 H       1  UNL1        0.0279
     31 H           7.1189    0.9628   -0.8057 H       1  UNL1        0.0279
     32 H           7.5464   -0.1771    0.4477 H       1  UNL1        0.0279
     33 H           5.8893    2.4616    2.1923 H       1  UNL1        0.1060
     34 H           5.3130   -1.7594   -0.2225 H       1  UNL1        0.0528
     35 H           4.8651   -0.5993   -1.4780 H       1  UNL1        0.0528
     36 H           3.1679   -2.5691   -0.4157 H       1  UNL1        0.1494
     37 H           0.0123    0.5557   -1.4468 H       1  UNL1        0.0629
     38 H          -3.4443   -0.2420   -2.1880 H       1  UNL1        0.0377
     39 H          -2.1129    0.9402   -2.4614 H       1  UNL1        0.0377
     40 H          -2.1322    3.8031    0.7968 H       1  UNL1        0.1921
     41 H          -5.5069    1.7284    3.0402 H       1  UNL1        0.0625
     42 H          -6.7700   -0.3022    2.6577 H       1  UNL1        0.0618
     43 H          -6.2655   -1.6797    0.7428 H       1  UNL1        0.0618
     44 H          -4.5326   -1.0705   -0.7868 H       1  UNL1        0.0624
     45 H          -2.8472   -2.4112   -1.5240 H       1  UNL1        0.0621
     46 H          -1.1339   -4.0510   -1.1120 H       1  UNL1        0.0646
@<TRIPOS>BOND
     1     1     2    1
     2     2     3   ar
     3     2     6   ar
     4     3     4   ar
     5     4     5   ar
     6     5     6   ar
     7     6     7    1
     8     7     8    1
     9     8     9   am
    10     9    10    2
    11     9    11    1
    12    11    12   ar
    13    11    28   ar
    14    12    13   ar
    15    13    14    1
    16    13    26   ar
    17    14    15    1
    18    15    16   ar
    19    15    25   ar
    20    16    17   ar
    21    17    18   ar
    22    18    19    2
    23    18    20   ar
    24    20    21   ar
    25    20    25   ar
    26    21    22   ar
    27    22    23   ar
    28    23    24   ar
    29    24    25   ar
    30    26    27   ar
    31    27    28   ar
    32    28    29    1
    33     1    30    1
    34     1    31    1
    35     1    32    1
    36     3    33    1
    37     7    34    1
    38     7    35    1
    39     8    36    1
    40    12    37    1
    41    14    38    1
    42    14    39    1
    43    17    40    1
    44    21    41    1
    45    22    42    1
    46    23    43    1
    47    24    44    1
    48    26    45    1
    49    27    46    1
@<TRIPOS>MOLECULE
../data/bude_mols_rdkit_confs2/molecule_77.pdb
 46 49 0 0 0
SMALL
GASTEIGER

@<TRIPOS>ATOM
      1  C1         6.2360    1.5300   -0.5410 C.3     1  UNL1       -0.0349
      2  C2         6.8800    0.2600   -0.1430 C.ar    1  UNL1        0.0129
      3  C3         8.1690   -0.0100    0.2290 C.ar    1  UNL1        0.1274
      4  O1         8.2530   -1.2920    0.5510 O.2     1  UNL1       -0.3624
      5  N1         7.0930   -1.8650    0.4090 N.ar    1  UNL1       -0.0815
      6  C4         6.2020   -0.9370   -0.0270 C.ar    1  UNL1        0.1034
      7  C5         4.8310   -1.1550   -0.4660 C.3     1  UNL1        0.0578
      8  N2         3.8450   -0.2950    0.1910 N.am    1  UNL1       -0.3056
      9  C6         2.5330   -0.4810   -0.2990 C.2     1  UNL1        0.2472
     10  O2         2.3680   -1.3880   -1.2310 O.2     1  UNL1       -0.2701
     11  C7         1.3620    0.2540    0.1400 C.ar    1  UNL1        0.0721
     12  C8         0.1300   -0.2350   -0.2580 C.ar    1  UNL1       -0.0433
     13  C9        -1.1060    0.3150    0.0800 C.ar    1  UNL1       -0.0406
     14  C10       -2.3310   -0.3780   -0.3780 C.3     1  UNL1        0.0171
     15  C11       -3.5850    0.3080   -0.3380 C.ar    1  UNL1        0.0736
     16  N3        -3.7970    1.6140   -0.2330 N.ar    1  UNL1       -0.1750
     17  N4        -4.9790    2.1930   -0.1350 N.ar    1  UNL1       -0.2425
     18  C12       -6.0790    1.4250   -0.1420 C.ar    1  UNL1        0.2725
     19  O3        -7.2090    2.0020   -0.0410 O.2     1  UNL1       -0.2658
     20  C13       -6.0060    0.0600   -0.2480 C.ar    1  UNL1        0.0496
     21  C14       -7.1570   -0.7050   -0.2470 C.ar    1  UNL1       -0.0487
     22  C15       -7.0090   -2.0870   -0.3550 C.ar    1  UNL1       -0.0610
     23  C16       -5.7580   -2.6500   -0.4590 C.ar    1  UNL1       -0.0611
     24  C17       -4.6280   -1.8510   -0.4530 C.ar    1  UNL1       -0.0521
     25  C18       -4.7450   -0.4990   -0.3440 C.ar    1  UNL1        0.0106
     26  C19       -1.0710    1.4320    0.8640 C.ar    1  UNL1       -0.0555
     27  C20        0.1590    1.9660    1.2970 C.ar    1  UNL1       -0.0254
     28  C21        1.3430    1.3700    0.9310 C.ar    1  UNL1        0.1355
     29  F1         2.5390    1.9190    1.3460 F       1  UNL1       -0.2047
     30 H           6.9675    2.3107   -0.5583 H       1  UNL1        0.0279
     31 H           5.4681    1.7762    0.1623 H       1  UNL1        0.0279
     32 H           5.8063    1.4221   -1.5150 H       1  UNL1        0.0279
     33 H           8.9446    0.6703    0.2544 H       1  UNL1        0.1060
     34 H           4.5730   -2.1741   -0.2663 H       1  UNL1        0.0528
     35 H           4.8009   -0.9155   -1.5084 H       1  UNL1        0.0528
     36 H           4.0729    0.3472    0.9015 H       1  UNL1        0.1494
     37 H           0.1257   -1.0770   -0.8547 H       1  UNL1        0.0629
     38 H          -2.4366   -1.2550    0.2259 H       1  UNL1        0.0377
     39 H          -2.1594   -0.5268   -1.4236 H       1  UNL1        0.0377
     40 H          -5.0522    3.1718   -0.0581 H       1  UNL1        0.1921
     41 H          -8.0897   -0.2701   -0.1693 H       1  UNL1        0.0625
     42 H          -7.8446   -2.6926   -0.3570 H       1  UNL1        0.0618
     43 H          -5.6617   -3.6741   -0.5420 H       1  UNL1        0.0618
     44 H          -3.6934   -2.2816   -0.5314 H       1  UNL1        0.0624
     45 H          -1.9533    1.8894    1.1421 H       1  UNL1        0.0621
     46 H           0.1714    2.8090    1.8921 H       1  UNL1        0.0646
@<TRIPOS>BOND
     1     1     2    1
     2     2     3   ar
     3     2     6   ar
     4     3     4   ar
     5     4     5   ar
     6     5     6   ar
     7     6     7    1
     8     7     8    1
     9     8     9   am
    10     9    10    2
    11     9    11    1
    12    11    12   ar
    13    11    28   ar
    14    12    13   ar
    15    13    14    1
    16    13    26   ar
    17    14    15    1
    18    15    16   ar
    19    15    25   ar
    20    16    17   ar
    21    17    18   ar
    22    18    19    2
    23    18    20   ar
    24    20    21   ar
    25    20    25   ar
    26    21    22   ar
    27    22    23   ar
    28    23    24   ar
    29    24    25   ar
    30    26    27   ar
    31    27    28   ar
    32    28    29    1
    33     1    30    1
    34     1    31    1
    35     1    32    1
    36     3    33    1
    37     7    34    1
    38     7    35    1
    39     8    36    1
    40    12    37    1
    41    14    38    1
    42    14    39    1
    43    17    40    1
    44    21    41    1
    45    22    42    1
    46    23    43    1
    47    24    44    1
    48    26    45    1
    49    27    46    1
@<TRIPOS>MOLECULE
../data/bude_mols_rdkit_confs2/molecule_77.pdb
 46 49 0 0 0
SMALL
GASTEIGER

@<TRIPOS>ATOM
      1  C1         5.6150   -1.4630    1.3630 C.3     1  UNL1       -0.0349
      2  C2         6.6320   -0.5690    0.7390 C.ar    1  UNL1        0.0129
      3  C3         7.9200   -0.3140    0.9530 C.ar    1  UNL1        0.1274
      4  O1         8.2480    0.6780    0.1930 O.2     1  UNL1       -0.3624
      5  N1         7.2540    1.1050   -0.5150 N.ar    1  UNL1       -0.0815
      6  C4         6.1720    0.3540   -0.2460 C.ar    1  UNL1        0.1034
      7  C5         4.9340    0.1740   -0.9160 C.3     1  UNL1        0.0578
      8  N2         3.6950    0.8250   -0.8460 N.am    1  UNL1       -0.3056
      9  C6         2.5960   -0.1070   -1.1650 C.2     1  UNL1        0.2472
     10  O2         3.0090   -1.3210   -1.3980 O.2     1  UNL1       -0.2701
     11  C7         1.2010    0.1600   -1.2430 C.ar    1  UNL1        0.0721
     12  C8         0.1970   -0.6330   -0.7310 C.ar    1  UNL1       -0.0433
     13  C9        -1.1670   -0.3740   -0.9380 C.ar    1  UNL1       -0.0406
     14  C10       -2.2260   -1.2150   -0.3070 C.3     1  UNL1        0.0171
     15  C11       -3.3500   -0.3160    0.1080 C.ar    1  UNL1        0.0736
     16  N3        -3.3310    0.9980   -0.1910 N.ar    1  UNL1       -0.1750
     17  N4        -4.3060    1.8480    0.0510 N.ar    1  UNL1       -0.2425
     18  C12       -5.4200    1.4320    0.6430 C.ar    1  UNL1        0.2725
     19  O3        -6.3570    2.2710    0.8750 O.2     1  UNL1       -0.2658
     20  C13       -5.5410    0.1110    0.9960 C.ar    1  UNL1        0.0496
     21  C14       -6.6750   -0.3320    1.6020 C.ar    1  UNL1       -0.0487
     22  C15       -6.8060   -1.6790    1.9710 C.ar    1  UNL1       -0.0610
     23  C16       -5.7500   -2.5180    1.7060 C.ar    1  UNL1       -0.0611
     24  C17       -4.6040   -2.0870    1.0930 C.ar    1  UNL1       -0.0521
     25  C18       -4.4900   -0.7690    0.7230 C.ar    1  UNL1        0.0106
     26  C19       -1.5150    0.7230   -1.6930 C.ar    1  UNL1       -0.0555
     27  C20       -0.5310    1.5450   -2.2090 C.ar    1  UNL1       -0.0254
     28  C21        0.7570    1.2790   -1.9900 C.ar    1  UNL1        0.1355
     29  F1         1.7640    2.0750   -2.4590 F       1  UNL1       -0.2047
     30 H           6.0913   -2.1001    2.0787 H       1  UNL1        0.0279
     31 H           5.1527   -2.0607    0.6054 H       1  UNL1        0.0279
     32 H           4.8712   -0.8699    1.8527 H       1  UNL1        0.0279
     33 H           8.5423   -0.8159    1.6056 H       1  UNL1        0.1060
     34 H           4.6866   -0.8446   -0.7013 H       1  UNL1        0.0528
     35 H           5.2423    0.6314   -1.8328 H       1  UNL1        0.0528
     36 H           3.5742    1.7745   -0.6155 H       1  UNL1        0.1494
     37 H           0.4606   -1.4570   -0.1683 H       1  UNL1        0.0629
     38 H          -1.8277   -1.7167    0.5501 H       1  UNL1        0.0377
     39 H          -2.5769   -1.9504   -1.0005 H       1  UNL1        0.0377
     40 H          -4.2097    2.7932   -0.2070 H       1  UNL1        0.1921
     41 H          -7.4453    0.3280    1.7919 H       1  UNL1        0.0625
     42 H          -7.6646   -2.0276    2.4252 H       1  UNL1        0.0618
     43 H          -5.8237   -3.5104    1.9794 H       1  UNL1        0.0618
     44 H          -3.8320   -2.7471    0.9104 H       1  UNL1        0.0624
     45 H          -2.5095    0.9315   -1.8736 H       1  UNL1        0.0621
     46 H          -0.7953    2.3711   -2.7682 H       1  UNL1        0.0646
@<TRIPOS>BOND
     1     1     2    1
     2     2     3   ar
     3     2     6   ar
     4     3     4   ar
     5     4     5   ar
     6     5     6   ar
     7     6     7    1
     8     7     8    1
     9     8     9   am
    10     9    10    2
    11     9    11    1
    12    11    12   ar
    13    11    28   ar
    14    12    13   ar
    15    13    14    1
    16    13    26   ar
    17    14    15    1
    18    15    16   ar
    19    15    25   ar
    20    16    17   ar
    21    17    18   ar
    22    18    19    2
    23    18    20   ar
    24    20    21   ar
    25    20    25   ar
    26    21    22   ar
    27    22    23   ar
    28    23    24   ar
    29    24    25   ar
    30    26    27   ar
    31    27    28   ar
    32    28    29    1
    33     1    30    1
    34     1    31    1
    35     1    32    1
    36     3    33    1
    37     7    34    1
    38     7    35    1
    39     8    36    1
    40    12    37    1
    41    14    38    1
    42    14    39    1
    43    17    40    1
    44    21    41    1
    45    22    42    1
    46    23    43    1
    47    24    44    1
    48    26    45    1
    49    27    46    1
@<TRIPOS>MOLECULE
../data/bude_mols_rdkit_confs2/molecule_77.pdb
 46 49 0 0 0
SMALL
GASTEIGER

@<TRIPOS>ATOM
      1  C1         7.3940    0.9370   -0.0130 C.3     1  UNL1       -0.0349
      2  C2         6.0240    1.4410    0.0990 C.ar    1  UNL1        0.0129
      3  C3         5.6560    2.7840    0.0610 C.ar    1  UNL1        0.1274
      4  O1         4.3670    2.7820    0.2010 O.2     1  UNL1       -0.3624
      5  N1         3.8760    1.5950    0.3230 N.ar    1  UNL1       -0.0815
      6  C4         4.8700    0.6900    0.2670 C.ar    1  UNL1        0.1034
      7  C5         4.8170   -0.7820    0.3430 C.3     1  UNL1        0.0578
      8  N2         3.4570   -1.2850    0.5430 N.am    1  UNL1       -0.3056
      9  C6         2.4050   -0.9970   -0.3310 C.2     1  UNL1        0.2472
     10  O2         2.7300   -0.2430   -1.3230 O.2     1  UNL1       -0.2701
     11  C7         1.0230   -1.4510   -0.2270 C.ar    1  UNL1        0.0721
     12  C8         0.0640   -0.8130   -0.9790 C.ar    1  UNL1       -0.0433
     13  C9        -1.2940   -1.1490   -0.9510 C.ar    1  UNL1       -0.0406
     14  C10       -2.2600   -0.3620   -1.7720 C.3     1  UNL1        0.0171
     15  C11       -3.0250    0.6200   -1.0030 C.ar    1  UNL1        0.0736
     16  N3        -2.4990    1.8590   -0.7560 N.ar    1  UNL1       -0.1750
     17  N4        -3.0820    2.7590    0.0010 N.ar    1  UNL1       -0.2425
     18  C12       -4.2610    2.5060    0.5940 C.ar    1  UNL1        0.2725
     19  O3        -4.8490    3.3410    1.3270 O.2     1  UNL1       -0.2658
     20  C13       -4.8530    1.2800    0.3890 C.ar    1  UNL1        0.0496
     21  C14       -6.0800    0.9630    0.9420 C.ar    1  UNL1       -0.0487
     22  C15       -6.7170   -0.2400    0.7360 C.ar    1  UNL1       -0.0610
     23  C16       -6.0960   -1.1770   -0.0670 C.ar    1  UNL1       -0.0611
     24  C17       -4.8760   -0.8830   -0.6250 C.ar    1  UNL1       -0.0521
     25  C18       -4.2270    0.3220   -0.4210 C.ar    1  UNL1        0.0106
     26  C19       -1.6630   -2.1640   -0.1310 C.ar    1  UNL1       -0.0555
     27  C20       -0.7390   -2.8500    0.6550 C.ar    1  UNL1       -0.0254
     28  C21        0.5730   -2.4640    0.5750 C.ar    1  UNL1        0.1355
     29  F1         1.4590   -3.1390    1.3370 F       1  UNL1       -0.2047
     30 H           8.0677    1.7593   -0.1351 H       1  UNL1        0.0279
     31 H           7.4669    0.2873   -0.8601 H       1  UNL1        0.0279
     32 H           7.6487    0.3960    0.8743 H       1  UNL1        0.0279
     33 H           6.2745    3.6021   -0.0536 H       1  UNL1        0.1060
     34 H           5.4261   -1.1054    1.1611 H       1  UNL1        0.0528
     35 H           5.1724   -1.1684   -0.5893 H       1  UNL1        0.0528
     36 H           3.2753   -1.8511    1.3277 H       1  UNL1        0.1494
     37 H           0.3628   -0.0436   -1.5984 H       1  UNL1        0.0629
     38 H          -2.9476   -1.0427   -2.2288 H       1  UNL1        0.0377
     39 H          -1.6858    0.1839   -2.4912 H       1  UNL1        0.0377
     40 H          -2.6489    3.6327    0.1364 H       1  UNL1        0.1921
     41 H          -6.5426    1.6650    1.5406 H       1  UNL1        0.0625
     42 H          -7.6328   -0.4363    1.1693 H       1  UNL1        0.0618
     43 H          -6.5445   -2.0891   -0.2458 H       1  UNL1        0.0618
     44 H          -4.4233   -1.5920   -1.2228 H       1  UNL1        0.0624
     45 H          -2.6574   -2.4365   -0.0877 H       1  UNL1        0.0621
     46 H          -1.0325   -3.6210    1.2750 H       1  UNL1        0.0646
@<TRIPOS>BOND
     1     1     2    1
     2     2     3   ar
     3     2     6   ar
     4     3     4   ar
     5     4     5   ar
     6     5     6   ar
     7     6     7    1
     8     7     8    1
     9     8     9   am
    10     9    10    2
    11     9    11    1
    12    11    12   ar
    13    11    28   ar
    14    12    13   ar
    15    13    14    1
    16    13    26   ar
    17    14    15    1
    18    15    16   ar
    19    15    25   ar
    20    16    17   ar
    21    17    18   ar
    22    18    19    2
    23    18    20   ar
    24    20    21   ar
    25    20    25   ar
    26    21    22   ar
    27    22    23   ar
    28    23    24   ar
    29    24    25   ar
    30    26    27   ar
    31    27    28   ar
    32    28    29    1
    33     1    30    1
    34     1    31    1
    35     1    32    1
    36     3    33    1
    37     7    34    1
    38     7    35    1
    39     8    36    1
    40    12    37    1
    41    14    38    1
    42    14    39    1
    43    17    40    1
    44    21    41    1
    45    22    42    1
    46    23    43    1
    47    24    44    1
    48    26    45    1
    49    27    46    1
@<TRIPOS>MOLECULE
../data/bude_mols_rdkit_confs2/molecule_77.pdb
 46 49 0 0 0
SMALL
GASTEIGER

@<TRIPOS>ATOM
      1  C1         6.3990    2.4680   -0.9320 C.3     1  UNL1       -0.0349
      2  C2         5.7960    1.1090   -0.9120 C.ar    1  UNL1        0.0129
      3  C3         6.1370    0.0180   -1.6860 C.ar    1  UNL1        0.1274
      4  O1         5.3490   -0.9700   -1.3370 O.2     1  UNL1       -0.3624
      5  N1         4.5400   -0.5760   -0.4000 N.ar    1  UNL1       -0.0815
      6  C4         4.7620    0.7100   -0.0860 C.ar    1  UNL1        0.1034
      7  C5         4.0830    1.5590    0.9160 C.3     1  UNL1        0.0578
      8  N2         3.0550    0.7210    1.5500 N.am    1  UNL1       -0.3056
      9  C6         2.0470    0.1930    0.7350 C.2     1  UNL1        0.2472
     10  O2         2.0970    0.4860   -0.5030 O.2     1  UNL1       -0.2701
     11  C7         0.9440   -0.6600    1.1750 C.ar    1  UNL1        0.0721
     12  C8        -0.0580   -1.0320    0.2710 C.ar    1  UNL1       -0.0433
     13  C9        -1.1320   -1.8140    0.5740 C.ar    1  UNL1       -0.0406
     14  C10       -2.1480   -2.1470   -0.4320 C.3     1  UNL1        0.0171
     15  C11       -3.4760   -1.5820   -0.2340 C.ar    1  UNL1        0.0736
     16  N3        -4.4250   -2.3630    0.3630 N.ar    1  UNL1       -0.1750
     17  N4        -5.6410   -1.9900    0.6390 N.ar    1  UNL1       -0.2425
     18  C12       -6.0440   -0.7530    0.3350 C.ar    1  UNL1        0.2725
     19  O3        -7.2100   -0.3790    0.5950 O.2     1  UNL1       -0.2658
     20  C13       -5.1440    0.0950   -0.2700 C.ar    1  UNL1        0.0496
     21  C14       -5.5230    1.3790   -0.6110 C.ar    1  UNL1       -0.0487
     22  C15       -4.6450    2.2380   -1.2250 C.ar    1  UNL1       -0.0610
     23  C16       -3.3730    1.8150   -1.5040 C.ar    1  UNL1       -0.0611
     24  C17       -2.9400    0.5370   -1.1840 C.ar    1  UNL1       -0.0521
     25  C18       -3.8330   -0.3090   -0.5680 C.ar    1  UNL1        0.0106
     26  C19       -1.2270   -2.2710    1.8870 C.ar    1  UNL1       -0.0555
     27  C20       -0.2680   -1.9320    2.8130 C.ar    1  UNL1       -0.0254
     28  C21        0.8030   -1.1370    2.4590 C.ar    1  UNL1        0.1355
     29  F1         1.6960   -0.8590    3.4240 F       1  UNL1       -0.2047
     30 H           7.1785    2.5016   -1.6642 H       1  UNL1        0.0279
     31 H           6.8054    2.6921    0.0321 H       1  UNL1        0.0279
     32 H           5.6470    3.1883   -1.1783 H       1  UNL1        0.0279
     33 H           6.8755   -0.0140   -2.4061 H       1  UNL1        0.1060
     34 H           3.6290    2.4021    0.4386 H       1  UNL1        0.0528
     35 H           4.7773    1.9314    1.6399 H       1  UNL1        0.0528
     36 H           3.0749    0.5370    2.5170 H       1  UNL1        0.1494
     37 H           0.0228   -0.6879   -0.6986 H       1  UNL1        0.0629
     38 H          -2.2485   -3.2121   -0.4508 H       1  UNL1        0.0377
     39 H          -1.7922   -1.7150   -1.3440 H       1  UNL1        0.0377
     40 H          -6.2632   -2.6187    1.0713 H       1  UNL1        0.1921
     41 H          -6.4817    1.6979   -0.4008 H       1  UNL1        0.0625
     42 H          -4.9415    3.1946   -1.4741 H       1  UNL1        0.0618
     43 H          -2.7181    2.4655   -1.9654 H       1  UNL1        0.0618
     44 H          -1.9788    0.2304   -1.4010 H       1  UNL1        0.0624
     45 H          -2.0216   -2.8673    2.1663 H       1  UNL1        0.0621
     46 H          -0.3503   -2.2758    3.7826 H       1  UNL1        0.0646
@<TRIPOS>BOND
     1     1     2    1
     2     2     3   ar
     3     2     6   ar
     4     3     4   ar
     5     4     5   ar
     6     5     6   ar
     7     6     7    1
     8     7     8    1
     9     8     9   am
    10     9    10    2
    11     9    11    1
    12    11    12   ar
    13    11    28   ar
    14    12    13   ar
    15    13    14    1
    16    13    26   ar
    17    14    15    1
    18    15    16   ar
    19    15    25   ar
    20    16    17   ar
    21    17    18   ar
    22    18    19    2
    23    18    20   ar
    24    20    21   ar
    25    20    25   ar
    26    21    22   ar
    27    22    23   ar
    28    23    24   ar
    29    24    25   ar
    30    26    27   ar
    31    27    28   ar
    32    28    29    1
    33     1    30    1
    34     1    31    1
    35     1    32    1
    36     3    33    1
    37     7    34    1
    38     7    35    1
    39     8    36    1
    40    12    37    1
    41    14    38    1
    42    14    39    1
    43    17    40    1
    44    21    41    1
    45    22    42    1
    46    23    43    1
    47    24    44    1
    48    26    45    1
    49    27    46    1
@<TRIPOS>MOLECULE
../data/bude_mols_rdkit_confs2/molecule_77.pdb
 46 49 0 0 0
SMALL
GASTEIGER

@<TRIPOS>ATOM
      1  C1         6.8380   -2.3140   -0.4340 C.3     1  UNL1       -0.0349
      2  C2         6.4690   -0.9830   -0.9520 C.ar    1  UNL1        0.0129
      3  C3         7.2020   -0.1190   -1.7300 C.ar    1  UNL1        0.1274
      4  O1         6.4870    0.9550   -1.9570 O.2     1  UNL1       -0.3624
      5  N1         5.3410    0.8140   -1.3630 N.ar    1  UNL1       -0.0815
      6  C4         5.2590   -0.3620   -0.7210 C.ar    1  UNL1        0.1034
      7  C5         4.1030   -0.8430    0.0560 C.3     1  UNL1        0.0578
      8  N2         3.0620    0.1800    0.0010 N.am    1  UNL1       -0.3056
      9  C6         1.8230    0.0270    0.6500 C.2     1  UNL1        0.2472
     10  O2         1.6870   -1.0760    1.2860 O.2     1  UNL1       -0.2701
     11  C7         0.7180    0.9550    0.6740 C.ar    1  UNL1        0.0721
     12  C8        -0.4820    0.5980    1.3030 C.ar    1  UNL1       -0.0433
     13  C9        -1.5780    1.4140    1.3640 C.ar    1  UNL1       -0.0406
     14  C10       -2.8660    1.0380    2.0160 C.3     1  UNL1        0.0171
     15  C11       -3.9620    0.8620    1.0410 C.ar    1  UNL1        0.0736
     16  N3        -4.8260    1.8980    0.8080 N.ar    1  UNL1       -0.1750
     17  N4        -5.7930    1.8470   -0.0620 N.ar    1  UNL1       -0.2425
     18  C12       -5.9950    0.7410   -0.7950 C.ar    1  UNL1        0.2725
     19  O3        -6.9160    0.6460   -1.6470 O.2     1  UNL1       -0.2658
     20  C13       -5.1800   -0.3670   -0.6400 C.ar    1  UNL1        0.0496
     21  C14       -5.3600   -1.5100   -1.3560 C.ar    1  UNL1       -0.0487
     22  C15       -4.5200   -2.5760   -1.1400 C.ar    1  UNL1       -0.0610
     23  C16       -3.4970   -2.5330   -0.2220 C.ar    1  UNL1       -0.0611
     24  C17       -3.3280   -1.3590    0.4990 C.ar    1  UNL1       -0.0521
     25  C18       -4.1510   -0.2740    0.3060 C.ar    1  UNL1        0.0106
     26  C19       -1.5270    2.6840    0.7740 C.ar    1  UNL1       -0.0555
     27  C20       -0.3670    3.0670    0.1490 C.ar    1  UNL1       -0.0254
     28  C21        0.7320    2.2050    0.1070 C.ar    1  UNL1        0.1355
     29  F1         1.8370    2.6700   -0.5280 F       1  UNL1       -0.2047
     30 H           7.8276   -2.5608   -0.7575 H       1  UNL1        0.0279
     31 H           6.1492   -3.0443   -0.8042 H       1  UNL1        0.0279
     32 H           6.8049   -2.3023    0.6354 H       1  UNL1        0.0279
     33 H           8.1586   -0.2885   -2.0782 H       1  UNL1        0.1060
     34 H           4.3934   -1.0107    1.0721 H       1  UNL1        0.0528
     35 H           3.7400   -1.7636   -0.3510 H       1  UNL1        0.0528
     36 H           3.2332    1.0052   -0.5078 H       1  UNL1        0.1494
     37 H          -0.5423   -0.3326    1.7450 H       1  UNL1        0.0629
     38 H          -3.1400    1.8093    2.7051 H       1  UNL1        0.0377
     39 H          -2.7185    0.1018    2.5127 H       1  UNL1        0.0377
     40 H          -6.3815    2.6268   -0.1834 H       1  UNL1        0.1921
     41 H          -6.1183   -1.5756   -2.0529 H       1  UNL1        0.0625
     42 H          -4.6620   -3.4399   -1.6864 H       1  UNL1        0.0618
     43 H          -2.8770   -3.3447   -0.0744 H       1  UNL1        0.0618
     44 H          -2.5684   -1.2989    1.1950 H       1  UNL1        0.0624
     45 H          -2.3421    3.3160    0.8087 H       1  UNL1        0.0621
     46 H          -0.3058    3.9976   -0.2929 H       1  UNL1        0.0646
@<TRIPOS>BOND
     1     1     2    1
     2     2     3   ar
     3     2     6   ar
     4     3     4   ar
     5     4     5   ar
     6     5     6   ar
     7     6     7    1
     8     7     8    1
     9     8     9   am
    10     9    10    2
    11     9    11    1
    12    11    12   ar
    13    11    28   ar
    14    12    13   ar
    15    13    14    1
    16    13    26   ar
    17    14    15    1
    18    15    16   ar
    19    15    25   ar
    20    16    17   ar
    21    17    18   ar
    22    18    19    2
    23    18    20   ar
    24    20    21   ar
    25    20    25   ar
    26    21    22   ar
    27    22    23   ar
    28    23    24   ar
    29    24    25   ar
    30    26    27   ar
    31    27    28   ar
    32    28    29    1
    33     1    30    1
    34     1    31    1
    35     1    32    1
    36     3    33    1
    37     7    34    1
    38     7    35    1
    39     8    36    1
    40    12    37    1
    41    14    38    1
    42    14    39    1
    43    17    40    1
    44    21    41    1
    45    22    42    1
    46    23    43    1
    47    24    44    1
    48    26    45    1
    49    27    46    1
@<TRIPOS>MOLECULE
../data/bude_mols_rdkit_confs2/molecule_77.pdb
 46 49 0 0 0
SMALL
GASTEIGER

@<TRIPOS>ATOM
      1  C1        -6.2610    2.7390    0.1270 C.3     1  UNL1       -0.0349
      2  C2        -5.6570    1.5530    0.7640 C.ar    1  UNL1        0.0129
      3  C3        -5.9860    1.0570    1.9950 C.ar    1  UNL1        0.1274
      4  O1        -5.2360    0.0140    2.2040 O.2     1  UNL1       -0.3624
      5  N1        -4.4470   -0.1980    1.1930 N.ar    1  UNL1       -0.0815
      6  C4        -4.6690    0.7410    0.2580 C.ar    1  UNL1        0.1034
      7  C5        -4.0250    0.9140   -1.0510 C.3     1  UNL1        0.0578
      8  N2        -3.0190   -0.1610   -1.2000 N.am    1  UNL1       -0.3056
      9  C6        -1.9510   -0.2760   -0.2780 C.2     1  UNL1        0.2472
     10  O2        -1.9550    0.6060    0.6450 O.2     1  UNL1       -0.2701
     11  C7        -0.8970   -1.2670   -0.2950 C.ar    1  UNL1        0.0721
     12  C8         0.1810   -1.0230    0.5790 C.ar    1  UNL1       -0.0433
     13  C9         1.2420   -1.8770    0.6260 C.ar    1  UNL1       -0.0406
     14  C10        2.4400   -1.6790    1.5120 C.3     1  UNL1        0.0171
     15  C11        3.6250   -1.2450    0.7110 C.ar    1  UNL1        0.0736
     16  N3         4.4950   -2.1760    0.2490 N.ar    1  UNL1       -0.1750
     17  N4         5.5120   -1.8920   -0.5010 N.ar    1  UNL1       -0.2425
     18  C12        5.7280   -0.6160   -0.8440 C.ar    1  UNL1        0.2725
     19  O3         6.7000   -0.2740   -1.5710 O.2     1  UNL1       -0.2658
     20  C13        4.8850    0.3930   -0.4110 C.ar    1  UNL1        0.0496
     21  C14        5.0900    1.7030   -0.7340 C.ar    1  UNL1       -0.0487
     22  C15        4.2560    2.7260   -0.2880 C.ar    1  UNL1       -0.0610
     23  C16        3.1910    2.4000    0.5030 C.ar    1  UNL1       -0.0611
     24  C17        2.9800    1.0780    0.8310 C.ar    1  UNL1       -0.0521
     25  C18        3.7890    0.0760    0.3990 C.ar    1  UNL1        0.0106
     26  C19        1.2300   -2.9970   -0.2120 C.ar    1  UNL1       -0.0555
     27  C20        0.2040   -3.2710   -1.0740 C.ar    1  UNL1       -0.0254
     28  C21       -0.8760   -2.3800   -1.1060 C.ar    1  UNL1        0.1355
     29  F1        -1.9140   -2.6110   -1.9320 F       1  UNL1       -0.2047
     30 H          -7.0037    3.1533    0.7764 H       1  UNL1        0.0279
     31 H          -6.7156    2.4540   -0.7987 H       1  UNL1        0.0279
     32 H          -5.5017    3.4697   -0.0586 H       1  UNL1        0.0279
     33 H          -6.6967    1.4386    2.6386 H       1  UNL1        0.1060
     34 H          -3.5471    1.8702   -1.0991 H       1  UNL1        0.0528
     35 H          -4.7499    0.8619   -1.8363 H       1  UNL1        0.0528
     36 H          -3.0929   -0.8003   -1.9451 H       1  UNL1        0.1494
     37 H           0.1669   -0.1905    1.1887 H       1  UNL1        0.0629
     38 H           2.6681   -2.6008    2.0051 H       1  UNL1        0.0377
     39 H           2.2140   -0.9190    2.2305 H       1  UNL1        0.0377
     40 H           6.1166   -2.6031   -0.8139 H       1  UNL1        0.1921
     41 H           5.8950    1.9455   -1.3325 H       1  UNL1        0.0625
     42 H           4.4386    3.7076   -0.5492 H       1  UNL1        0.0618
     43 H           2.5533    3.1334    0.8502 H       1  UNL1        0.0618
     44 H           2.1739    0.8395    1.4297 H       1  UNL1        0.0624
     45 H           2.0317   -3.6460   -0.1783 H       1  UNL1        0.0621
     46 H           0.2250   -4.1059   -1.6802 H       1  UNL1        0.0646
@<TRIPOS>BOND
     1     1     2    1
     2     2     3   ar
     3     2     6   ar
     4     3     4   ar
     5     4     5   ar
     6     5     6   ar
     7     6     7    1
     8     7     8    1
     9     8     9   am
    10     9    10    2
    11     9    11    1
    12    11    12   ar
    13    11    28   ar
    14    12    13   ar
    15    13    14    1
    16    13    26   ar
    17    14    15    1
    18    15    16   ar
    19    15    25   ar
    20    16    17   ar
    21    17    18   ar
    22    18    19    2
    23    18    20   ar
    24    20    21   ar
    25    20    25   ar
    26    21    22   ar
    27    22    23   ar
    28    23    24   ar
    29    24    25   ar
    30    26    27   ar
    31    27    28   ar
    32    28    29    1
    33     1    30    1
    34     1    31    1
    35     1    32    1
    36     3    33    1
    37     7    34    1
    38     7    35    1
    39     8    36    1
    40    12    37    1
    41    14    38    1
    42    14    39    1
    43    17    40    1
    44    21    41    1
    45    22    42    1
    46    23    43    1
    47    24    44    1
    48    26    45    1
    49    27    46    1
@<TRIPOS>MOLECULE
../data/bude_mols_rdkit_confs2/molecule_77.pdb
 46 49 0 0 0
SMALL
GASTEIGER

@<TRIPOS>ATOM
      1  C1        -6.6690    0.3390    0.4900 C.3     1  UNL1       -0.0349
      2  C2        -6.3490   -1.0730    0.2550 C.ar    1  UNL1        0.0129
      3  C3        -7.0560   -2.1860    0.5990 C.ar    1  UNL1        0.1274
      4  O1        -6.3430   -3.2090    0.2720 O.2     1  UNL1       -0.3624
      5  N1        -5.2160   -2.8890   -0.2580 N.ar    1  UNL1       -0.0815
      6  C4        -5.1370   -1.5230   -0.3280 C.ar    1  UNL1        0.1034
      7  C5        -4.2550   -0.6810   -1.0470 C.3     1  UNL1        0.0578
      8  N2        -2.8620   -0.5360   -0.8060 N.am    1  UNL1       -0.3056
      9  C6        -2.5640    0.7350   -0.1090 C.2     1  UNL1        0.2472
     10  O2        -3.5490    1.3790    0.3050 O.2     1  UNL1       -0.2701
     11  C7        -1.2530    1.2410    0.0900 C.ar    1  UNL1        0.0721
     12  C8        -0.1680    0.6130   -0.4810 C.ar    1  UNL1       -0.0433
     13  C9         1.1210    1.1990   -0.3980 C.ar    1  UNL1       -0.0406
     14  C10        2.1900    0.6640   -1.2400 C.3     1  UNL1        0.0171
     15  C11        3.1000   -0.3570   -0.8510 C.ar    1  UNL1        0.0736
     16  N3         2.7730   -1.6700   -1.0960 N.ar    1  UNL1       -0.1750
     17  N4         3.5420   -2.6890   -0.8100 N.ar    1  UNL1       -0.2425
     18  C12        4.7710   -2.5370   -0.2340 C.ar    1  UNL1        0.2725
     19  O3         5.5190   -3.5030    0.0530 O.2     1  UNL1       -0.2658
     20  C13        5.1850   -1.2250    0.0390 C.ar    1  UNL1        0.0496
     21  C14        6.4540   -0.9930    0.4800 C.ar    1  UNL1       -0.0487
     22  C15        6.9390    0.2920    0.6210 C.ar    1  UNL1       -0.0610
     23  C16        6.0900    1.3300    0.3070 C.ar    1  UNL1       -0.0611
     24  C17        4.8000    1.0910   -0.1270 C.ar    1  UNL1       -0.0521
     25  C18        4.3250   -0.1980   -0.2760 C.ar    1  UNL1        0.0106
     26  C19        1.2160    2.3830    0.2840 C.ar    1  UNL1       -0.0555
     27  C20        0.1460    3.0490    0.8650 C.ar    1  UNL1       -0.0254
     28  C21       -1.0680    2.4360    0.7330 C.ar    1  UNL1        0.1355
     29  F1        -2.1540    3.1310    1.1960 F       1  UNL1       -0.2047
     30 H          -7.6376    0.4154    0.9382 H       1  UNL1        0.0279
     31 H          -6.6645    0.8656   -0.4415 H       1  UNL1        0.0279
     32 H          -5.9384    0.7661    1.1447 H       1  UNL1        0.0279
     33 H          -7.9890   -2.2062    1.0395 H       1  UNL1        0.1060
     34 H          -4.6618    0.3036   -0.9468 H       1  UNL1        0.0528
     35 H          -4.2271   -1.1995   -1.9825 H       1  UNL1        0.0528
     36 H          -2.1817   -1.1971   -1.0693 H       1  UNL1        0.1494
     37 H          -0.2934   -0.2867   -0.9707 H       1  UNL1        0.0629
     38 H           2.7984    1.5055   -1.4979 H       1  UNL1        0.0377
     39 H           1.6140    0.1401   -1.9739 H       1  UNL1        0.0377
     40 H           3.2236   -3.5973   -1.0172 H       1  UNL1        0.1921
     41 H           7.0634   -1.7927    0.7128 H       1  UNL1        0.0625
     42 H           7.9014    0.4680    0.9493 H       1  UNL1        0.0618
     43 H           6.4228    2.3027    0.3974 H       1  UNL1        0.0618
     44 H           4.1813    1.8882   -0.3433 H       1  UNL1        0.0624
     45 H           2.1510    2.8108    0.3722 H       1  UNL1        0.0621
     46 H           0.2595    3.9459    1.3627 H       1  UNL1        0.0646
@<TRIPOS>BOND
     1     1     2    1
     2     2     3   ar
     3     2     6   ar
     4     3     4   ar
     5     4     5   ar
     6     5     6   ar
     7     6     7    1
     8     7     8    1
     9     8     9   am
    10     9    10    2
    11     9    11    1
    12    11    12   ar
    13    11    28   ar
    14    12    13   ar
    15    13    14    1
    16    13    26   ar
    17    14    15    1
    18    15    16   ar
    19    15    25   ar
    20    16    17   ar
    21    17    18   ar
    22    18    19    2
    23    18    20   ar
    24    20    21   ar
    25    20    25   ar
    26    21    22   ar
    27    22    23   ar
    28    23    24   ar
    29    24    25   ar
    30    26    27   ar
    31    27    28   ar
    32    28    29    1
    33     1    30    1
    34     1    31    1
    35     1    32    1
    36     3    33    1
    37     7    34    1
    38     7    35    1
    39     8    36    1
    40    12    37    1
    41    14    38    1
    42    14    39    1
    43    17    40    1
    44    21    41    1
    45    22    42    1
    46    23    43    1
    47    24    44    1
    48    26    45    1
    49    27    46    1
@<TRIPOS>MOLECULE
../data/bude_mols_rdkit_confs2/molecule_77.pdb
 46 49 0 0 0
SMALL
GASTEIGER

@<TRIPOS>ATOM
      1  C1         6.8160   -2.4020   -0.6200 C.3     1  UNL1       -0.0349
      2  C2         5.9910   -1.2230   -1.0250 C.ar    1  UNL1        0.0129
      3  C3         6.1200   -0.4840   -2.1680 C.ar    1  UNL1        0.1274
      4  O1         5.2130    0.4500   -2.1410 O.2     1  UNL1       -0.3624
      5  N1         4.4900    0.3920   -1.0710 N.ar    1  UNL1       -0.0815
      6  C4         4.9450   -0.6520   -0.3330 C.ar    1  UNL1        0.1034
      7  C5         4.4040   -1.0840    0.9850 C.3     1  UNL1        0.0578
      8  N2         3.2910   -0.1930    1.3320 N.am    1  UNL1       -0.3056
      9  C6         2.1650   -0.1130    0.4930 C.2     1  UNL1        0.2472
     10  O2         2.2190   -0.8710   -0.5450 O.2     1  UNL1       -0.2701
     11  C7         0.9990    0.7300    0.7070 C.ar    1  UNL1        0.0721
     12  C8         0.0400    0.7540   -0.3040 C.ar    1  UNL1       -0.0433
     13  C9        -1.1060    1.5530   -0.2060 C.ar    1  UNL1       -0.0406
     14  C10       -2.0860    1.5320   -1.3450 C.3     1  UNL1        0.0171
     15  C11       -3.0150    0.3970   -1.2580 C.ar    1  UNL1        0.0736
     16  N3        -2.6260   -0.7520   -1.8820 N.ar    1  UNL1       -0.1750
     17  N4        -3.3430   -1.8490   -1.8100 N.ar    1  UNL1       -0.2425
     18  C12       -4.4950   -1.9390   -1.1330 C.ar    1  UNL1        0.2725
     19  O3        -5.1600   -2.9940   -1.0770 O.2     1  UNL1       -0.2658
     20  C13       -4.9520   -0.8040   -0.4720 C.ar    1  UNL1        0.0496
     21  C14       -6.1570   -0.8330    0.2310 C.ar    1  UNL1       -0.0487
     22  C15       -6.6040    0.3100    0.8570 C.ar    1  UNL1       -0.0610
     23  C16       -5.8360    1.4450    0.7630 C.ar    1  UNL1       -0.0611
     24  C17       -4.6380    1.4590    0.0600 C.ar    1  UNL1       -0.0521
     25  C18       -4.1800    0.3330   -0.5660 C.ar    1  UNL1        0.0106
     26  C19       -1.2820    2.3220    0.9040 C.ar    1  UNL1       -0.0555
     27  C20       -0.3410    2.3250    1.9410 C.ar    1  UNL1       -0.0254
     28  C21        0.7750    1.5110    1.7860 C.ar    1  UNL1        0.1355
     29  F1         1.6650    1.5290    2.8060 F       1  UNL1       -0.2047
     30 H           7.5507   -2.5987   -1.3727 H       1  UNL1        0.0279
     31 H           6.1837   -3.2577   -0.5065 H       1  UNL1        0.0279
     32 H           7.3042   -2.1935    0.3090 H       1  UNL1        0.0279
     33 H           6.8121   -0.6386   -2.9177 H       1  UNL1        0.1060
     34 H           5.1684   -1.0176    1.7308 H       1  UNL1        0.0528
     35 H           4.0665   -2.0981    0.9341 H       1  UNL1        0.0528
     36 H           3.3324    0.3492    2.1527 H       1  UNL1        0.1494
     37 H           0.1774    0.1699   -1.1436 H       1  UNL1        0.0629
     38 H          -1.5436    1.4635   -2.2648 H       1  UNL1        0.0377
     39 H          -2.6625    2.4322   -1.2985 H       1  UNL1        0.0377
     40 H          -3.0158   -2.6500   -2.2797 H       1  UNL1        0.1921
     41 H          -6.7089   -1.7036    0.2816 H       1  UNL1        0.0625
     42 H          -7.4922    0.3134    1.3825 H       1  UNL1        0.0618
     43 H          -6.1572    2.3093    1.2265 H       1  UNL1        0.0618
     44 H          -4.0868    2.3300    0.0096 H       1  UNL1        0.0624
     45 H          -2.1242    2.9133    0.9824 H       1  UNL1        0.0621
     46 H          -0.4705    2.9064    2.7838 H       1  UNL1        0.0646
@<TRIPOS>BOND
     1     1     2    1
     2     2     3   ar
     3     2     6   ar
     4     3     4   ar
     5     4     5   ar
     6     5     6   ar
     7     6     7    1
     8     7     8    1
     9     8     9   am
    10     9    10    2
    11     9    11    1
    12    11    12   ar
    13    11    28   ar
    14    12    13   ar
    15    13    14    1
    16    13    26   ar
    17    14    15    1
    18    15    16   ar
    19    15    25   ar
    20    16    17   ar
    21    17    18   ar
    22    18    19    2
    23    18    20   ar
    24    20    21   ar
    25    20    25   ar
    26    21    22   ar
    27    22    23   ar
    28    23    24   ar
    29    24    25   ar
    30    26    27   ar
    31    27    28   ar
    32    28    29    1
    33     1    30    1
    34     1    31    1
    35     1    32    1
    36     3    33    1
    37     7    34    1
    38     7    35    1
    39     8    36    1
    40    12    37    1
    41    14    38    1
    42    14    39    1
    43    17    40    1
    44    21    41    1
    45    22    42    1
    46    23    43    1
    47    24    44    1
    48    26    45    1
    49    27    46    1
@<TRIPOS>MOLECULE
../data/bude_mols_rdkit_confs2/molecule_77.pdb
 46 49 0 0 0
SMALL
GASTEIGER

@<TRIPOS>ATOM
      1  C1         6.4140    1.8520    1.9110 C.3     1  UNL1       -0.0349
      2  C2         5.8720    0.6390    1.2400 C.ar    1  UNL1        0.0129
      3  C3         6.3280   -0.6550    1.3020 C.ar    1  UNL1        0.1274
      4  O1         5.5370   -1.3640    0.5530 O.2     1  UNL1       -0.3624
      5  N1         4.6130   -0.6270    0.0170 N.ar    1  UNL1       -0.0815
      6  C4         4.7690    0.6410    0.4100 C.ar    1  UNL1        0.1034
      7  C5         3.9490    1.8240    0.0500 C.3     1  UNL1        0.0578
      8  N2         2.8840    1.3540   -0.8530 N.am    1  UNL1       -0.3056
      9  C6         1.9920    0.3740   -0.3560 C.2     1  UNL1        0.2472
     10  O2         2.1330   -0.0650    0.8460 O.2     1  UNL1       -0.2701
     11  C7         0.9070   -0.1720   -1.1410 C.ar    1  UNL1        0.0721
     12  C8        -0.0960   -0.9420   -0.5250 C.ar    1  UNL1       -0.0433
     13  C9        -1.1600   -1.4770   -1.1880 C.ar    1  UNL1       -0.0406
     14  C10       -2.2260   -2.2750   -0.5230 C.3     1  UNL1        0.0171
     15  C11       -3.5300   -1.5900   -0.5090 C.ar    1  UNL1        0.0736
     16  N3        -4.3770   -1.9230   -1.5340 N.ar    1  UNL1       -0.1750
     17  N4        -5.5270   -1.2920   -1.5920 N.ar    1  UNL1       -0.2425
     18  C12       -5.8970   -0.3570   -0.7070 C.ar    1  UNL1        0.2725
     19  O3        -7.0030    0.2460   -0.7690 O.2     1  UNL1       -0.2658
     20  C13       -5.0700   -0.0020    0.3330 C.ar    1  UNL1        0.0496
     21  C14       -5.4270    0.9440    1.2610 C.ar    1  UNL1       -0.0487
     22  C15       -4.5610    1.2340    2.2720 C.ar    1  UNL1       -0.0610
     23  C16       -3.3410    0.6010    2.3830 C.ar    1  UNL1       -0.0611
     24  C17       -2.9610   -0.3640    1.4470 C.ar    1  UNL1       -0.0521
     25  C18       -3.8290   -0.6530    0.4320 C.ar    1  UNL1        0.0106
     26  C19       -1.2950   -1.2700   -2.5560 C.ar    1  UNL1       -0.0555
     27  C20       -0.3400   -0.5280   -3.1850 C.ar    1  UNL1       -0.0254
     28  C21        0.7470    0.0130   -2.4840 C.ar    1  UNL1        0.1355
     29  F1         1.6660    0.7300   -3.1930 F       1  UNL1       -0.2047
     30 H           7.2686    1.5840    2.4964 H       1  UNL1        0.0279
     31 H           5.6637    2.2729    2.5472 H       1  UNL1        0.0279
     32 H           6.6993    2.5711    1.1718 H       1  UNL1        0.0279
     33 H           7.1402   -0.9976    1.8386 H       1  UNL1        0.1060
     34 H           4.5549    2.5536   -0.4455 H       1  UNL1        0.0528
     35 H           3.5335    2.2798    0.9243 H       1  UNL1        0.0528
     36 H           2.7962    1.7082   -1.7674 H       1  UNL1        0.1494
     37 H          -0.0219   -1.1122    0.4902 H       1  UNL1        0.0629
     38 H          -1.9297   -2.4658    0.4873 H       1  UNL1        0.0377
     39 H          -2.3447   -3.1804   -1.0808 H       1  UNL1        0.0377
     40 H          -6.1480   -1.5172   -2.3220 H       1  UNL1        0.1921
     41 H          -6.3362    1.4276    1.1941 H       1  UNL1        0.0625
     42 H          -4.8246    1.9450    2.9720 H       1  UNL1        0.0618
     43 H          -2.7062    0.8410    3.1605 H       1  UNL1        0.0618
     44 H          -2.0508   -0.8448    1.5201 H       1  UNL1        0.0624
     45 H          -2.0924   -1.6653   -3.0785 H       1  UNL1        0.0621
     46 H          -0.4189   -0.3607   -4.2003 H       1  UNL1        0.0646
@<TRIPOS>BOND
     1     1     2    1
     2     2     3   ar
     3     2     6   ar
     4     3     4   ar
     5     4     5   ar
     6     5     6   ar
     7     6     7    1
     8     7     8    1
     9     8     9   am
    10     9    10    2
    11     9    11    1
    12    11    12   ar
    13    11    28   ar
    14    12    13   ar
    15    13    14    1
    16    13    26   ar
    17    14    15    1
    18    15    16   ar
    19    15    25   ar
    20    16    17   ar
    21    17    18   ar
    22    18    19    2
    23    18    20   ar
    24    20    21   ar
    25    20    25   ar
    26    21    22   ar
    27    22    23   ar
    28    23    24   ar
    29    24    25   ar
    30    26    27   ar
    31    27    28   ar
    32    28    29    1
    33     1    30    1
    34     1    31    1
    35     1    32    1
    36     3    33    1
    37     7    34    1
    38     7    35    1
    39     8    36    1
    40    12    37    1
    41    14    38    1
    42    14    39    1
    43    17    40    1
    44    21    41    1
    45    22    42    1
    46    23    43    1
    47    24    44    1
    48    26    45    1
    49    27    46    1
@<TRIPOS>MOLECULE
../data/bude_mols_rdkit_confs2/molecule_77.pdb
 46 49 0 0 0
SMALL
GASTEIGER

@<TRIPOS>ATOM
      1  C1        -7.2040    0.7450   -0.7410 C.3     1  UNL1       -0.0349
      2  C2        -7.0080   -0.5850   -0.0810 C.ar    1  UNL1        0.0129
      3  C3        -7.9040   -1.2170    0.7230 C.ar    1  UNL1        0.1274
      4  O1        -7.2530   -2.2620    1.2110 O.2     1  UNL1       -0.3624
      5  N1        -6.0420   -2.3360    0.7790 N.ar    1  UNL1       -0.0815
      6  C4        -5.8120   -1.3100   -0.0500 C.ar    1  UNL1        0.1034
      7  C5        -4.7130   -1.0780   -0.9810 C.3     1  UNL1        0.0578
      8  N2        -3.5010   -0.5100   -0.5540 N.am    1  UNL1       -0.3056
      9  C6        -2.1920   -0.8650   -0.9710 C.2     1  UNL1        0.2472
     10  O2        -2.0040   -1.8520   -1.7050 O.2     1  UNL1       -0.2701
     11  C7        -1.0730    0.0150   -0.5190 C.ar    1  UNL1        0.0721
     12  C8         0.1310   -0.3920   -0.0640 C.ar    1  UNL1       -0.0433
     13  C9         1.1130    0.5350    0.3350 C.ar    1  UNL1       -0.0406
     14  C10        2.4290    0.1510    0.8070 C.3     1  UNL1        0.0171
     15  C11        3.5590    0.4330   -0.0800 C.ar    1  UNL1        0.0736
     16  N3         3.5550    1.0930   -1.2390 N.ar    1  UNL1       -0.1750
     17  N4         4.6080    1.3230   -1.9640 N.ar    1  UNL1       -0.2425
     18  C12        5.8270    0.8810   -1.5720 C.ar    1  UNL1        0.2725
     19  O3         6.8140    1.1120   -2.3010 O.2     1  UNL1       -0.2658
     20  C13        5.9380    0.1910   -0.3800 C.ar    1  UNL1        0.0496
     21  C14        7.1780   -0.2810    0.0590 C.ar    1  UNL1       -0.0487
     22  C15        7.2980   -0.9770    1.2440 C.ar    1  UNL1       -0.0610
     23  C16        6.1730   -1.2060    2.0000 C.ar    1  UNL1       -0.0611
     24  C17        4.9300   -0.7380    1.5690 C.ar    1  UNL1       -0.0521
     25  C18        4.8050   -0.0360    0.3710 C.ar    1  UNL1        0.0106
     26  C19        0.8180    1.8770    0.2430 C.ar    1  UNL1       -0.0555
     27  C20       -0.4300    2.2960   -0.2330 C.ar    1  UNL1       -0.0254
     28  C21       -1.3470    1.4070   -0.6000 C.ar    1  UNL1        0.1355
     29  F1        -2.5520    1.7950   -1.1020 F       1  UNL1       -0.2047
     30 H          -8.2167    1.0636   -0.6076 H       1  UNL1        0.0279
     31 H          -6.9919    0.6592   -1.7862 H       1  UNL1        0.0279
     32 H          -6.5434    1.4624   -0.3007 H       1  UNL1        0.0279
     33 H          -8.8805   -0.9418    0.9121 H       1  UNL1        0.1060
     34 H          -5.0953   -0.4353   -1.7463 H       1  UNL1        0.0528
     35 H          -4.4215   -2.0724   -1.2477 H       1  UNL1        0.0528
     36 H          -3.5673    0.2153    0.1085 H       1  UNL1        0.1494
     37 H           0.3357   -1.4019   -0.0075 H       1  UNL1        0.0629
     38 H           2.4134   -0.9039    0.9853 H       1  UNL1        0.0377
     39 H           2.5999    0.7514    1.6760 H       1  UNL1        0.0377
     40 H           4.5192    1.8237   -2.8070 H       1  UNL1        0.1921
     41 H           8.0187   -0.1058   -0.5134 H       1  UNL1        0.0625
     42 H           8.2189   -1.3207    1.5583 H       1  UNL1        0.0618
     43 H           6.2473   -1.7253    2.8887 H       1  UNL1        0.0618
     44 H           4.0922   -0.9142    2.1453 H       1  UNL1        0.0624
     45 H           1.5208    2.5776    0.5265 H       1  UNL1        0.0621
     46 H          -0.6398    3.3043   -0.2995 H       1  UNL1        0.0646
@<TRIPOS>BOND
     1     1     2    1
     2     2     3   ar
     3     2     6   ar
     4     3     4   ar
     5     4     5   ar
     6     5     6   ar
     7     6     7    1
     8     7     8    1
     9     8     9   am
    10     9    10    2
    11     9    11    1
    12    11    12   ar
    13    11    28   ar
    14    12    13   ar
    15    13    14    1
    16    13    26   ar
    17    14    15    1
    18    15    16   ar
    19    15    25   ar
    20    16    17   ar
    21    17    18   ar
    22    18    19    2
    23    18    20   ar
    24    20    21   ar
    25    20    25   ar
    26    21    22   ar
    27    22    23   ar
    28    23    24   ar
    29    24    25   ar
    30    26    27   ar
    31    27    28   ar
    32    28    29    1
    33     1    30    1
    34     1    31    1
    35     1    32    1
    36     3    33    1
    37     7    34    1
    38     7    35    1
    39     8    36    1
    40    12    37    1
    41    14    38    1
    42    14    39    1
    43    17    40    1
    44    21    41    1
    45    22    42    1
    46    23    43    1
    47    24    44    1
    48    26    45    1
    49    27    46    1
@<TRIPOS>MOLECULE
../data/bude_mols_rdkit_confs2/molecule_77.pdb
 46 49 0 0 0
SMALL
GASTEIGER

@<TRIPOS>ATOM
      1  C1        -6.9880   -0.6570    1.8450 C.3     1  UNL1       -0.0349
      2  C2        -6.6840   -0.8550    0.4020 C.ar    1  UNL1        0.0129
      3  C3        -7.5790   -1.2780   -0.5730 C.ar    1  UNL1        0.1274
      4  O1        -6.9070   -1.3170   -1.6950 O.2     1  UNL1       -0.3624
      5  N1        -5.6830   -0.9660   -1.5390 N.ar    1  UNL1       -0.0815
      6  C4        -5.4980   -0.6660   -0.2320 C.ar    1  UNL1        0.1034
      7  C5        -4.2590   -0.2130    0.3930 C.3     1  UNL1        0.0578
      8  N2        -3.1380   -0.1070   -0.5630 N.am    1  UNL1       -0.3056
      9  C6        -1.9080    0.3500   -0.0290 C.2     1  UNL1        0.2472
     10  O2        -1.8980    0.6240    1.2360 O.2     1  UNL1       -0.2701
     11  C7        -0.7090    0.5170   -0.8150 C.ar    1  UNL1        0.0721
     12  C8         0.3590    1.1290   -0.2010 C.ar    1  UNL1       -0.0433
     13  C9         1.5820    1.3860   -0.8320 C.ar    1  UNL1       -0.0406
     14  C10        2.6450    2.0680   -0.0960 C.3     1  UNL1        0.0171
     15  C11        3.3540    1.1260    0.7830 C.ar    1  UNL1        0.0736
     16  N3         2.8610    1.0240    2.0480 N.ar    1  UNL1       -0.1750
     17  N4         3.3470    0.1840    2.9370 N.ar    1  UNL1       -0.2425
     18  C12        4.3670   -0.6240    2.6350 C.ar    1  UNL1        0.2725
     19  O3         4.8250   -1.4200    3.4750 O.2     1  UNL1       -0.2658
     20  C13        4.9050   -0.5630    1.3700 C.ar    1  UNL1        0.0496
     21  C14        5.9590   -1.3530    1.0120 C.ar    1  UNL1       -0.0487
     22  C15        6.5010   -1.2620   -0.2690 C.ar    1  UNL1       -0.0610
     23  C16        5.9830   -0.3790   -1.1810 C.ar    1  UNL1       -0.0611
     24  C17        4.9140    0.4360   -0.8500 C.ar    1  UNL1       -0.0521
     25  C18        4.3980    0.3250    0.4180 C.ar    1  UNL1        0.0106
     26  C19        1.6880    0.9950   -2.1290 C.ar    1  UNL1       -0.0555
     27  C20        0.6230    0.3670   -2.7920 C.ar    1  UNL1       -0.0254
     28  C21       -0.5760    0.1370   -2.1080 C.ar    1  UNL1        0.1355
     29  F1        -1.5500   -0.4750   -2.8030 F       1  UNL1       -0.2047
     30 H          -8.0158   -0.8912    2.0284 H       1  UNL1        0.0279
     31 H          -6.8013    0.3621    2.1123 H       1  UNL1        0.0279
     32 H          -6.3655   -1.2995    2.4321 H       1  UNL1        0.0279
     33 H          -8.5746   -1.5142   -0.4390 H       1  UNL1        0.1060
     34 H          -3.9891   -0.9089    1.1597 H       1  UNL1        0.0528
     35 H          -4.4377    0.7653    0.7879 H       1  UNL1        0.0528
     36 H          -3.2395   -0.3399   -1.5141 H       1  UNL1        0.1494
     37 H           0.2522    1.4161    0.7845 H       1  UNL1        0.0629
     38 H           2.2166    2.8483    0.4978 H       1  UNL1        0.0377
     39 H           3.3424    2.4763   -0.7973 H       1  UNL1        0.0377
     40 H           2.9527    0.1506    3.8385 H       1  UNL1        0.1921
     41 H           6.3560   -2.0200    1.6921 H       1  UNL1        0.0625
     42 H           7.2973   -1.8632   -0.5326 H       1  UNL1        0.0618
     43 H           6.3949   -0.3212   -2.1255 H       1  UNL1        0.0618
     44 H           4.5191    1.1029   -1.5314 H       1  UNL1        0.0624
     45 H           2.5704    1.1635   -2.6370 H       1  UNL1        0.0621
     46 H           0.7231    0.0767   -3.7773 H       1  UNL1        0.0646
@<TRIPOS>BOND
     1     1     2    1
     2     2     3   ar
     3     2     6   ar
     4     3     4   ar
     5     4     5   ar
     6     5     6   ar
     7     6     7    1
     8     7     8    1
     9     8     9   am
    10     9    10    2
    11     9    11    1
    12    11    12   ar
    13    11    28   ar
    14    12    13   ar
    15    13    14    1
    16    13    26   ar
    17    14    15    1
    18    15    16   ar
    19    15    25   ar
    20    16    17   ar
    21    17    18   ar
    22    18    19    2
    23    18    20   ar
    24    20    21   ar
    25    20    25   ar
    26    21    22   ar
    27    22    23   ar
    28    23    24   ar
    29    24    25   ar
    30    26    27   ar
    31    27    28   ar
    32    28    29    1
    33     1    30    1
    34     1    31    1
    35     1    32    1
    36     3    33    1
    37     7    34    1
    38     7    35    1
    39     8    36    1
    40    12    37    1
    41    14    38    1
    42    14    39    1
    43    17    40    1
    44    21    41    1
    45    22    42    1
    46    23    43    1
    47    24    44    1
    48    26    45    1
    49    27    46    1
@<TRIPOS>MOLECULE
../data/bude_mols_rdkit_confs2/molecule_77.pdb
 46 49 0 0 0
SMALL
GASTEIGER

@<TRIPOS>ATOM
      1  C1         7.5940    0.2530    0.4430 C.3     1  UNL1       -0.0349
      2  C2         6.3810    0.9480   -0.0570 C.ar    1  UNL1        0.0129
      3  C3         6.2930    1.9210   -1.0460 C.ar    1  UNL1        0.1274
      4  O1         5.0150    2.2370   -1.1420 O.2     1  UNL1       -0.3624
      5  N1         4.3120    1.5310   -0.2860 N.ar    1  UNL1       -0.0815
      6  C4         5.1100    0.7110    0.4170 C.ar    1  UNL1        0.1034
      7  C5         4.7540   -0.2610    1.4850 C.3     1  UNL1        0.0578
      8  N2         3.3130   -0.2490    1.7310 N.am    1  UNL1       -0.3056
      9  C6         2.3790   -0.5590    0.7260 C.2     1  UNL1        0.2472
     10  O2         2.9140   -0.8480   -0.4120 O.2     1  UNL1       -0.2701
     11  C7         0.9400   -0.5870    0.8290 C.ar    1  UNL1        0.0721
     12  C8         0.1790   -0.8200   -0.3040 C.ar    1  UNL1       -0.0433
     13  C9        -1.2060   -0.8570   -0.3010 C.ar    1  UNL1       -0.0406
     14  C10       -1.9410   -1.1120   -1.5460 C.3     1  UNL1        0.0171
     15  C11       -3.3900   -1.1580   -1.3100 C.ar    1  UNL1        0.0736
     16  N3        -4.0100   -2.3500   -1.2600 N.ar    1  UNL1       -0.1750
     17  N4        -5.2980   -2.5190   -1.0510 N.ar    1  UNL1       -0.2425
     18  C12       -6.0720   -1.4440   -0.8710 C.ar    1  UNL1        0.2725
     19  O3        -7.3060   -1.5530   -0.6680 O.2     1  UNL1       -0.2658
     20  C13       -5.5020   -0.1860   -0.9100 C.ar    1  UNL1        0.0496
     21  C14       -6.2610    0.9640   -0.7320 C.ar    1  UNL1       -0.0487
     22  C15       -5.6730    2.2120   -0.7760 C.ar    1  UNL1       -0.0610
     23  C16       -4.3140    2.3200   -1.0000 C.ar    1  UNL1       -0.0611
     24  C17       -3.5390    1.1990   -1.1800 C.ar    1  UNL1       -0.0521
     25  C18       -4.1580   -0.0260   -1.1290 C.ar    1  UNL1        0.0106
     26  C19       -1.8410   -0.6490    0.9010 C.ar    1  UNL1       -0.0555
     27  C20       -1.1480   -0.4110    2.0660 C.ar    1  UNL1       -0.0254
     28  C21        0.2560   -0.3870    1.9930 C.ar    1  UNL1        0.1355
     29  F1         0.9010   -0.1570    3.1630 F       1  UNL1       -0.2047
     30 H           8.4535    0.6124   -0.0834 H       1  UNL1        0.0279
     31 H           7.4928   -0.8002    0.2837 H       1  UNL1        0.0279
     32 H           7.7099    0.4460    1.4891 H       1  UNL1        0.0279
     33 H           7.0715    2.3172   -1.5955 H       1  UNL1        0.1060
     34 H           5.2669    0.0030    2.3862 H       1  UNL1        0.0528
     35 H           5.0423   -1.2419    1.1693 H       1  UNL1        0.0528
     36 H           2.9855   -0.0163    2.6298 H       1  UNL1        0.1494
     37 H           0.6697   -0.9744   -1.1986 H       1  UNL1        0.0629
     38 H          -1.6240   -2.0498   -1.9522 H       1  UNL1        0.0377
     39 H          -1.7351   -0.3147   -2.2293 H       1  UNL1        0.0377
     40 H          -5.6859   -3.4236   -1.0275 H       1  UNL1        0.1921
     41 H          -7.2763    0.8842   -0.5649 H       1  UNL1        0.0625
     42 H          -6.2456    3.0601   -0.6423 H       1  UNL1        0.0618
     43 H          -3.8754    3.2536   -1.0326 H       1  UNL1        0.0618
     44 H          -2.5237    1.2755   -1.3482 H       1  UNL1        0.0624
     45 H          -2.8723   -0.6722    0.9304 H       1  UNL1        0.0621
     46 H          -1.6403   -0.2560    2.9596 H       1  UNL1        0.0646
@<TRIPOS>BOND
     1     1     2    1
     2     2     3   ar
     3     2     6   ar
     4     3     4   ar
     5     4     5   ar
     6     5     6   ar
     7     6     7    1
     8     7     8    1
     9     8     9   am
    10     9    10    2
    11     9    11    1
    12    11    12   ar
    13    11    28   ar
    14    12    13   ar
    15    13    14    1
    16    13    26   ar
    17    14    15    1
    18    15    16   ar
    19    15    25   ar
    20    16    17   ar
    21    17    18   ar
    22    18    19    2
    23    18    20   ar
    24    20    21   ar
    25    20    25   ar
    26    21    22   ar
    27    22    23   ar
    28    23    24   ar
    29    24    25   ar
    30    26    27   ar
    31    27    28   ar
    32    28    29    1
    33     1    30    1
    34     1    31    1
    35     1    32    1
    36     3    33    1
    37     7    34    1
    38     7    35    1
    39     8    36    1
    40    12    37    1
    41    14    38    1
    42    14    39    1
    43    17    40    1
    44    21    41    1
    45    22    42    1
    46    23    43    1
    47    24    44    1
    48    26    45    1
    49    27    46    1
@<TRIPOS>MOLECULE
../data/bude_mols_rdkit_confs2/molecule_77.pdb
 46 49 0 0 0
SMALL
GASTEIGER

@<TRIPOS>ATOM
      1  C1        -7.7070    0.3290   -0.6190 C.3     1  UNL1       -0.0349
      2  C2        -6.5520   -0.6090   -0.6860 C.ar    1  UNL1        0.0129
      3  C3        -6.5460   -1.8450   -1.2950 C.ar    1  UNL1        0.1274
      4  O1        -5.3440   -2.3310   -1.1220 O.2     1  UNL1       -0.3624
      5  N1        -4.5950   -1.5250   -0.4670 N.ar    1  UNL1       -0.0815
      6  C4        -5.2830   -0.4350   -0.1650 C.ar    1  UNL1        0.1034
      7  C5        -4.9090    0.8030    0.5720 C.3     1  UNL1        0.0578
      8  N2        -3.5270    0.7700    1.0290 N.am    1  UNL1       -0.3056
      9  C6        -2.4590    0.6340    0.1230 C.2     1  UNL1        0.2472
     10  O2        -2.8220    0.5390   -1.1080 O.2     1  UNL1       -0.2701
     11  C7        -1.0390    0.5910    0.4570 C.ar    1  UNL1        0.0721
     12  C8        -0.1310    0.2040   -0.5320 C.ar    1  UNL1       -0.0433
     13  C9         1.2280    0.1050   -0.3440 C.ar    1  UNL1       -0.0406
     14  C10        2.1180   -0.3590   -1.4610 C.3     1  UNL1        0.0171
     15  C11        3.3800   -0.9300   -1.0090 C.ar    1  UNL1        0.0736
     16  N3         3.4660   -2.2820   -0.8360 N.ar    1  UNL1       -0.1750
     17  N4         4.5950   -2.7890   -0.3860 N.ar    1  UNL1       -0.2425
     18  C12        5.6640   -2.0360   -0.0890 C.ar    1  UNL1        0.2725
     19  O3         6.7080   -2.5850    0.3360 O.2     1  UNL1       -0.2658
     20  C13        5.6190   -0.6720   -0.2490 C.ar    1  UNL1        0.0496
     21  C14        6.6710    0.1570    0.0150 C.ar    1  UNL1       -0.0487
     22  C15        6.5740    1.5090   -0.1810 C.ar    1  UNL1       -0.0610
     23  C16        5.4040    2.0620   -0.6520 C.ar    1  UNL1       -0.0611
     24  C17        4.3040    1.2490   -0.9340 C.ar    1  UNL1       -0.0521
     25  C18        4.4440   -0.1020   -0.7220 C.ar    1  UNL1        0.0106
     26  C19        1.6890    0.4160    0.9130 C.ar    1  UNL1       -0.0555
     27  C20        0.8550    0.8070    1.9390 C.ar    1  UNL1       -0.0254
     28  C21       -0.4970    0.8830    1.6760 C.ar    1  UNL1        0.1355
     29  F1        -1.3350    1.2820    2.6880 F       1  UNL1       -0.2047
     30 H          -8.5473   -0.1036   -1.1206 H       1  UNL1        0.0279
     31 H          -7.4450    1.2518   -1.0929 H       1  UNL1        0.0279
     32 H          -7.9585    0.5126    0.4047 H       1  UNL1        0.0279
     33 H          -7.3319   -2.2965   -1.7884 H       1  UNL1        0.1060
     34 H          -5.5513    0.9065    1.4215 H       1  UNL1        0.0528
     35 H          -5.0157    1.6308   -0.0975 H       1  UNL1        0.0528
     36 H          -3.3358    0.8444    1.9919 H       1  UNL1        0.1494
     37 H          -0.5052   -0.0229   -1.4666 H       1  UNL1        0.0629
     38 H           2.3332    0.4787   -2.0910 H       1  UNL1        0.0377
     39 H           1.5919   -1.1350   -1.9768 H       1  UNL1        0.0377
     40 H           4.6569   -3.7637   -0.2622 H       1  UNL1        0.1921
     41 H           7.5547   -0.2420    0.3684 H       1  UNL1        0.0625
     42 H           7.3821    2.1167    0.0254 H       1  UNL1        0.0618
     43 H           5.3398    3.0817   -0.7972 H       1  UNL1        0.0618
     44 H           3.4201    1.6471   -1.2879 H       1  UNL1        0.0624
     45 H           2.7026    0.3542    1.0967 H       1  UNL1        0.0621
     46 H           1.2299    1.0353    2.8730 H       1  UNL1        0.0646
@<TRIPOS>BOND
     1     1     2    1
     2     2     3   ar
     3     2     6   ar
     4     3     4   ar
     5     4     5   ar
     6     5     6   ar
     7     6     7    1
     8     7     8    1
     9     8     9   am
    10     9    10    2
    11     9    11    1
    12    11    12   ar
    13    11    28   ar
    14    12    13   ar
    15    13    14    1
    16    13    26   ar
    17    14    15    1
    18    15    16   ar
    19    15    25   ar
    20    16    17   ar
    21    17    18   ar
    22    18    19    2
    23    18    20   ar
    24    20    21   ar
    25    20    25   ar
    26    21    22   ar
    27    22    23   ar
    28    23    24   ar
    29    24    25   ar
    30    26    27   ar
    31    27    28   ar
    32    28    29    1
    33     1    30    1
    34     1    31    1
    35     1    32    1
    36     3    33    1
    37     7    34    1
    38     7    35    1
    39     8    36    1
    40    12    37    1
    41    14    38    1
    42    14    39    1
    43    17    40    1
    44    21    41    1
    45    22    42    1
    46    23    43    1
    47    24    44    1
    48    26    45    1
    49    27    46    1
@<TRIPOS>MOLECULE
../data/bude_mols_rdkit_confs2/molecule_77.pdb
 46 49 0 0 0
SMALL
GASTEIGER

@<TRIPOS>ATOM
      1  C1         6.5380    2.9980    0.4970 C.3     1  UNL1       -0.0349
      2  C2         6.4340    1.5560    0.8510 C.ar    1  UNL1        0.0129
      3  C3         7.4510    0.8350    1.4470 C.ar    1  UNL1        0.1274
      4  O1         7.0020   -0.3930    1.6070 O.2     1  UNL1       -0.3624
      5  N1         5.7780   -0.4890    1.1540 N.ar    1  UNL1       -0.0815
      6  C4         5.3750    0.6910    0.6730 C.ar    1  UNL1        0.1034
      7  C5         4.1060    1.1150    0.0600 C.3     1  UNL1        0.0578
      8  N2         3.1540   -0.0100   -0.0040 N.am    1  UNL1       -0.3056
      9  C6         1.8620    0.1620   -0.5580 C.2     1  UNL1        0.2472
     10  O2         1.6400    1.3580   -0.9740 O.2     1  UNL1       -0.2701
     11  C7         0.8450   -0.8600   -0.6750 C.ar    1  UNL1        0.0721
     12  C8        -0.3590   -0.4930   -1.2320 C.ar    1  UNL1       -0.0433
     13  C9        -1.4300   -1.3870   -1.4000 C.ar    1  UNL1       -0.0406
     14  C10       -2.6710   -0.8650   -2.0430 C.3     1  UNL1        0.0171
     15  C11       -3.4430    0.0570   -1.2210 C.ar    1  UNL1        0.0736
     16  N3        -3.2670    1.4040   -1.3730 N.ar    1  UNL1       -0.1750
     17  N4        -3.8960    2.2890   -0.6330 N.ar    1  UNL1       -0.2425
     18  C12       -4.7590    1.9250    0.3260 C.ar    1  UNL1        0.2725
     19  O3        -5.3550    2.8140    1.0290 O.2     1  UNL1       -0.2658
     20  C13       -4.9990    0.5890    0.5480 C.ar    1  UNL1        0.0496
     21  C14       -5.8980    0.2120    1.5280 C.ar    1  UNL1       -0.0487
     22  C15       -6.1320   -1.1250    1.7220 C.ar    1  UNL1       -0.0610
     23  C16       -5.4740   -2.0530    0.9440 C.ar    1  UNL1       -0.0611
     24  C17       -4.5790   -1.6740   -0.0310 C.ar    1  UNL1       -0.0521
     25  C18       -4.3220   -0.3380   -0.2470 C.ar    1  UNL1        0.0106
     26  C19       -1.2730   -2.6850   -0.9940 C.ar    1  UNL1       -0.0555
     27  C20       -0.0760   -3.0840   -0.4310 C.ar    1  UNL1       -0.0254
     28  C21        0.9580   -2.1650   -0.2820 C.ar    1  UNL1        0.1355
     29  F1         2.0910   -2.6130    0.2690 F       1  UNL1       -0.2047
     30 H           7.5040    3.3647    0.7750 H       1  UNL1        0.0279
     31 H           5.7836    3.5487    1.0191 H       1  UNL1        0.0279
     32 H           6.4011    3.1172   -0.5575 H       1  UNL1        0.0279
     33 H           8.3823    1.1899    1.7150 H       1  UNL1        0.1060
     34 H           4.2966    1.4702   -0.9312 H       1  UNL1        0.0528
     35 H           3.6788    1.8924    0.6583 H       1  UNL1        0.0528
     36 H           3.4203   -0.8920    0.3430 H       1  UNL1        0.1494
     37 H          -0.4808    0.4842   -1.5406 H       1  UNL1        0.0629
     38 H          -3.2964   -1.6987   -2.2852 H       1  UNL1        0.0377
     39 H          -2.3551   -0.3108   -2.9020 H       1  UNL1        0.0377
     40 H          -3.7287    3.2468   -0.7873 H       1  UNL1        0.1921
     41 H          -6.3822    0.9209    2.1008 H       1  UNL1        0.0625
     42 H          -6.7977   -1.4350    2.4471 H       1  UNL1        0.0618
     43 H          -5.6568   -3.0572    1.0961 H       1  UNL1        0.0618
     44 H          -4.1009   -2.3903   -0.5997 H       1  UNL1        0.0624
     45 H          -2.0441   -3.3614   -1.1078 H       1  UNL1        0.0621
     46 H           0.0507   -4.0605   -0.1220 H       1  UNL1        0.0646
@<TRIPOS>BOND
     1     1     2    1
     2     2     3   ar
     3     2     6   ar
     4     3     4   ar
     5     4     5   ar
     6     5     6   ar
     7     6     7    1
     8     7     8    1
     9     8     9   am
    10     9    10    2
    11     9    11    1
    12    11    12   ar
    13    11    28   ar
    14    12    13   ar
    15    13    14    1
    16    13    26   ar
    17    14    15    1
    18    15    16   ar
    19    15    25   ar
    20    16    17   ar
    21    17    18   ar
    22    18    19    2
    23    18    20   ar
    24    20    21   ar
    25    20    25   ar
    26    21    22   ar
    27    22    23   ar
    28    23    24   ar
    29    24    25   ar
    30    26    27   ar
    31    27    28   ar
    32    28    29    1
    33     1    30    1
    34     1    31    1
    35     1    32    1
    36     3    33    1
    37     7    34    1
    38     7    35    1
    39     8    36    1
    40    12    37    1
    41    14    38    1
    42    14    39    1
    43    17    40    1
    44    21    41    1
    45    22    42    1
    46    23    43    1
    47    24    44    1
    48    26    45    1
    49    27    46    1
@<TRIPOS>MOLECULE
../data/bude_mols_rdkit_confs2/molecule_77.pdb
 46 49 0 0 0
SMALL
GASTEIGER

@<TRIPOS>ATOM
      1  C1         7.1360   -0.7000   -1.0410 C.3     1  UNL1       -0.0349
      2  C2         5.7460   -0.5070   -1.5010 C.ar    1  UNL1        0.0129
      3  C3         5.2280   -0.9920   -2.6820 C.ar    1  UNL1        0.1274
      4  O1         3.9780   -0.6350   -2.7620 O.2     1  UNL1       -0.3624
      5  N1         3.6670    0.0430   -1.7130 N.ar    1  UNL1       -0.0815
      6  C4         4.7020    0.1580   -0.9010 C.ar    1  UNL1        0.1034
      7  C5         4.8410    0.8370    0.4110 C.3     1  UNL1        0.0578
      8  N2         3.5700    1.4630    0.8080 N.am    1  UNL1       -0.3056
      9  C6         2.4130    0.6700    0.9750 C.2     1  UNL1        0.2472
     10  O2         2.5220   -0.5940    0.7620 O.2     1  UNL1       -0.2701
     11  C7         1.1300    1.1900    1.3620 C.ar    1  UNL1        0.0721
     12  C8         0.0190    0.3260    1.2740 C.ar    1  UNL1       -0.0433
     13  C9        -1.2470    0.7310    1.6040 C.ar    1  UNL1       -0.0406
     14  C10       -2.4180   -0.1650    1.5140 C.3     1  UNL1        0.0171
     15  C11       -3.0670   -0.0950    0.1760 C.ar    1  UNL1        0.0736
     16  N3        -2.6420    0.6790   -0.8100 N.ar    1  UNL1       -0.1750
     17  N4        -3.2340    0.7260   -1.9910 N.ar    1  UNL1       -0.2425
     18  C12       -4.3130   -0.0530   -2.1800 C.ar    1  UNL1        0.2725
     19  O3        -4.9050   -0.0300   -3.3070 O.2     1  UNL1       -0.2658
     20  C13       -4.8210   -0.8870   -1.2070 C.ar    1  UNL1        0.0496
     21  C14       -5.9430   -1.6810   -1.4400 C.ar    1  UNL1       -0.0487
     22  C15       -6.4350   -2.5030   -0.4650 C.ar    1  UNL1       -0.0610
     23  C16       -5.7900   -2.5280    0.7640 C.ar    1  UNL1       -0.0611
     24  C17       -4.6680   -1.7310    0.9880 C.ar    1  UNL1       -0.0521
     25  C18       -4.1750   -0.9060    0.0080 C.ar    1  UNL1        0.0106
     26  C19       -1.4760    2.0210    2.0420 C.ar    1  UNL1       -0.0555
     27  C20       -0.4050    2.8710    2.1330 C.ar    1  UNL1       -0.0254
     28  C21        0.8880    2.4630    1.7970 C.ar    1  UNL1        0.1355
     29  F1         1.9200    3.3370    1.9140 F       1  UNL1       -0.2047
     30 H           7.6756   -1.2722   -1.7665 H       1  UNL1        0.0279
     31 H           7.1333   -1.2208   -0.1063 H       1  UNL1        0.0279
     32 H           7.6062    0.2531   -0.9169 H       1  UNL1        0.0279
     33 H           5.7435   -1.5448   -3.3846 H       1  UNL1        0.1060
     34 H           5.5966    1.5911    0.3383 H       1  UNL1        0.0528
     35 H           5.1125    0.1104    1.1481 H       1  UNL1        0.0528
     36 H           3.5259    2.4351    0.9573 H       1  UNL1        0.1494
     37 H           0.1647   -0.6431    0.9504 H       1  UNL1        0.0629
     38 H          -3.1304    0.1203    2.2597 H       1  UNL1        0.0377
     39 H          -2.0809   -1.1688    1.6677 H       1  UNL1        0.0377
     40 H          -2.8964    1.3111   -2.7071 H       1  UNL1        0.1921
     41 H          -6.4082   -1.6477   -2.3606 H       1  UNL1        0.0625
     42 H          -7.2655   -3.0906   -0.6383 H       1  UNL1        0.0618
     43 H          -6.1430   -3.1400    1.5162 H       1  UNL1        0.0618
     44 H          -4.1998   -1.7620    1.9072 H       1  UNL1        0.0624
     45 H          -2.4262    2.3355    2.2934 H       1  UNL1        0.0621
     46 H          -0.5578    3.8384    2.4584 H       1  UNL1        0.0646
@<TRIPOS>BOND
     1     1     2    1
     2     2     3   ar
     3     2     6   ar
     4     3     4   ar
     5     4     5   ar
     6     5     6   ar
     7     6     7    1
     8     7     8    1
     9     8     9   am
    10     9    10    2
    11     9    11    1
    12    11    12   ar
    13    11    28   ar
    14    12    13   ar
    15    13    14    1
    16    13    26   ar
    17    14    15    1
    18    15    16   ar
    19    15    25   ar
    20    16    17   ar
    21    17    18   ar
    22    18    19    2
    23    18    20   ar
    24    20    21   ar
    25    20    25   ar
    26    21    22   ar
    27    22    23   ar
    28    23    24   ar
    29    24    25   ar
    30    26    27   ar
    31    27    28   ar
    32    28    29    1
    33     1    30    1
    34     1    31    1
    35     1    32    1
    36     3    33    1
    37     7    34    1
    38     7    35    1
    39     8    36    1
    40    12    37    1
    41    14    38    1
    42    14    39    1
    43    17    40    1
    44    21    41    1
    45    22    42    1
    46    23    43    1
    47    24    44    1
    48    26    45    1
    49    27    46    1
