@<TRIPOS>MOLECULE
../data/bude_mols_rdkit_confs2/molecule_86.pdb
 46 49 0 0 0
SMALL
GASTEIGER

@<TRIPOS>ATOM
      1  O1        -5.9030   -1.3430    0.1240 O.2     1  UNL1       -0.2661
      2  C1        -4.7500   -1.0870    0.5520 C.ar    1  UNL1        0.2682
      3  N1        -4.1780   -1.7880    1.5470 N.ar    1  UNL1       -0.2427
      4  N2        -2.9640   -1.4840    1.9650 N.ar    1  UNL1       -0.1753
      5  C2        -2.2140   -0.4740    1.4460 C.ar    1  UNL1        0.0693
      6  C3        -0.8460   -0.2790    1.9590 C.3     1  UNL1        0.0168
      7  C4         0.2040   -0.9840    1.1830 C.ar    1  UNL1       -0.0397
      8  C5         0.5300   -2.2880    1.5580 C.ar    1  UNL1       -0.0581
      9  C6         1.4920   -2.9910    0.8890 C.ar    1  UNL1       -0.0597
     10  C7         2.1650   -2.4060   -0.1900 C.ar    1  UNL1       -0.0393
     11  C8         1.8680   -1.1260   -0.5840 C.ar    1  UNL1        0.0484
     12  N3         2.4880   -0.4680   -1.6700 N.pl3   1  UNL1       -0.2135
     13  S1         4.2070   -0.5130   -1.8090 S.O2    1  UNL1        0.1056
     14  O2         4.6990   -1.9500   -1.8500 O.2     1  UNL1       -0.1470
     15  O3         4.6220    0.1410   -3.0910 O.2     1  UNL1       -0.1470
     16  C9         4.9660    0.2480   -0.4340 C.ar    1  UNL1        0.2610
     17  C10        5.7960    1.3390   -0.5150 C.ar    1  UNL1        0.0041
     18  C11        6.1850    1.6320    0.7770 C.ar    1  UNL1       -0.0219
     19  C12        5.5670    0.6940    1.5860 C.ar    1  UNL1        0.0943
     20  O4         4.8610   -0.0970    0.8240 O.2     1  UNL1       -0.4449
     21  C13        0.8820   -0.4420    0.1250 C.ar    1  UNL1       -0.0358
     22  C14       -2.7980    0.2460    0.4300 C.ar    1  UNL1       -0.0158
     23  C15       -4.0640   -0.0300   -0.0460 C.ar    1  UNL1        0.0232
     24  C16       -4.6930    0.7470   -1.1600 C.3     1  UNL1       -0.0222
     25  C17       -4.2430    2.1630   -1.2100 C.3     1  UNL1       -0.0486
     26  C18       -3.1190    2.5120   -0.3190 C.3     1  UNL1       -0.0487
     27  C19       -2.1050    1.3930   -0.1650 C.3     1  UNL1       -0.0255
     28 H          -4.6679   -2.5322    1.9659 H       1  UNL1        0.1921
     29 H          -0.8126   -0.6345    2.9677 H       1  UNL1        0.0377
     30 H          -0.6353    0.7670    1.8792 H       1  UNL1        0.0377
     31 H           0.0378   -2.7275    2.3515 H       1  UNL1        0.0620
     32 H           1.7226   -3.9541    1.1795 H       1  UNL1        0.0618
     33 H           2.8899   -2.9415   -0.6928 H       1  UNL1        0.0636
     34 H           1.9460    0.0099   -2.3386 H       1  UNL1        0.1738
     35 H           6.0742    1.8410   -1.3727 H       1  UNL1        0.0670
     36 H           6.8101    2.3958    1.0786 H       1  UNL1        0.0650
     37 H           5.6499    0.6309    2.6127 H       1  UNL1        0.1030
     38 H           0.6516    0.5220   -0.1625 H       1  UNL1        0.0639
     39 H          -5.7548    0.7316   -1.0288 H       1  UNL1        0.0315
     40 H          -4.3961    0.2852   -2.0784 H       1  UNL1        0.0315
     41 H          -5.0753    2.7814   -0.9461 H       1  UNL1        0.0269
     42 H          -3.8835    2.3186   -2.2057 H       1  UNL1        0.0269
     43 H          -3.5126    2.7490    0.6473 H       1  UNL1        0.0268
     44 H          -2.6097    3.3424   -0.7617 H       1  UNL1        0.0268
     45 H          -1.7100    1.1242   -1.1224 H       1  UNL1        0.0314
     46 H          -1.2922    1.7052    0.4570 H       1  UNL1        0.0314
@<TRIPOS>BOND
     1     1     2    2
     2     2     3   ar
     3     2    23   ar
     4     3     4   ar
     5     4     5   ar
     6     5     6    1
     7     5    22   ar
     8     6     7    1
     9     7     8   ar
    10     7    21   ar
    11     8     9   ar
    12     9    10   ar
    13    10    11   ar
    14    11    12    1
    15    11    21   ar
    16    12    13    1
    17    13    14    2
    18    13    15    2
    19    13    16    1
    20    16    17   ar
    21    16    20   ar
    22    17    18   ar
    23    18    19   ar
    24    19    20   ar
    25    22    23   ar
    26    22    27    1
    27    23    24    1
    28    24    25    1
    29    25    26    1
    30    26    27    1
    31     3    28    1
    32     6    29    1
    33     6    30    1
    34     8    31    1
    35     9    32    1
    36    10    33    1
    37    12    34    1
    38    17    35    1
    39    18    36    1
    40    19    37    1
    41    21    38    1
    42    24    39    1
    43    24    40    1
    44    25    41    1
    45    25    42    1
    46    26    43    1
    47    26    44    1
    48    27    45    1
    49    27    46    1
@<TRIPOS>MOLECULE
../data/bude_mols_rdkit_confs2/molecule_86.pdb
 46 49 0 0 0
SMALL
GASTEIGER

@<TRIPOS>ATOM
      1  O1        -4.3180   -2.9930   -0.7940 O.2     1  UNL1       -0.2661
      2  C1        -3.6430   -2.1590   -0.1450 C.ar    1  UNL1        0.2682
      3  N1        -2.8890   -2.5620    0.9190 N.ar    1  UNL1       -0.2427
      4  N2        -2.1710   -1.7070    1.6170 N.ar    1  UNL1       -0.1753
      5  C2        -2.1310   -0.3700    1.3270 C.ar    1  UNL1        0.0693
      6  C3        -1.2400    0.4960    2.1330 C.3     1  UNL1        0.0168
      7  C4         0.0910    0.6820    1.5050 C.ar    1  UNL1       -0.0397
      8  C5         0.4040    1.7790    0.7550 C.ar    1  UNL1       -0.0581
      9  C6         1.6900    1.8360    0.2050 C.ar    1  UNL1       -0.0597
     10  C7         2.5980    0.8210    0.4180 C.ar    1  UNL1       -0.0393
     11  C8         2.2840   -0.2840    1.1730 C.ar    1  UNL1        0.0484
     12  N3         3.1960   -1.3240    1.4180 N.pl3   1  UNL1       -0.2135
     13  S1         4.1060   -2.0790    0.1850 S.O2    1  UNL1        0.1056
     14  O2         4.9160   -3.2200    0.7720 O.2     1  UNL1       -0.1470
     15  O3         3.1930   -2.7010   -0.8590 O.2     1  UNL1       -0.1470
     16  C9         5.1480   -0.9230   -0.5950 C.ar    1  UNL1        0.2610
     17  C10        5.1100   -0.6070   -1.9270 C.ar    1  UNL1        0.0041
     18  C11        6.0780    0.3350   -2.1560 C.ar    1  UNL1       -0.0219
     19  C12        6.6850    0.5660   -0.9320 C.ar    1  UNL1        0.0943
     20  O4         6.1050   -0.1960   -0.0460 O.2     1  UNL1       -0.4449
     21  C13        1.0170   -0.3440    1.7170 C.ar    1  UNL1       -0.0358
     22  C14       -2.8880    0.0390    0.2620 C.ar    1  UNL1       -0.0158
     23  C15       -3.6520   -0.8340   -0.4920 C.ar    1  UNL1        0.0232
     24  C16       -4.4220   -0.2810   -1.6280 C.3     1  UNL1       -0.0222
     25  C17       -5.2160    0.8690   -1.0470 C.3     1  UNL1       -0.0486
     26  C18       -4.3620    1.9020   -0.3930 C.3     1  UNL1       -0.0487
     27  C19       -2.9480    1.4550   -0.0980 C.3     1  UNL1       -0.0255
     28 H          -2.8818   -3.5138    1.1703 H       1  UNL1        0.1921
     29 H          -1.1058    0.0488    3.0957 H       1  UNL1        0.0377
     30 H          -1.7019    1.4583    2.2074 H       1  UNL1        0.0377
     31 H          -0.2801    2.5359    0.5998 H       1  UNL1        0.0620
     32 H           1.9622    2.6498   -0.3683 H       1  UNL1        0.0618
     33 H           3.5386    0.8926   -0.0005 H       1  UNL1        0.0636
     34 H           3.3166   -1.6327    2.3451 H       1  UNL1        0.1738
     35 H           4.4688   -1.0059   -2.6303 H       1  UNL1        0.0670
     36 H           6.3084    0.7819   -3.0572 H       1  UNL1        0.0650
     37 H           7.4592    1.2245   -0.7529 H       1  UNL1        0.1030
     38 H           0.7486   -1.1595    2.2897 H       1  UNL1        0.0639
     39 H          -5.0779   -1.0229   -2.0332 H       1  UNL1        0.0315
     40 H          -3.7844    0.0364   -2.4265 H       1  UNL1        0.0315
     41 H          -5.8958    0.4790   -0.3186 H       1  UNL1        0.0269
     42 H          -5.7256    1.3453   -1.8584 H       1  UNL1        0.0269
     43 H          -4.8237    2.1804    0.5313 H       1  UNL1        0.0268
     44 H          -4.2851    2.7144   -1.0851 H       1  UNL1        0.0268
     45 H          -2.3455    1.6168   -0.9673 H       1  UNL1        0.0314
     46 H          -2.5867    2.0241    0.7329 H       1  UNL1        0.0314
@<TRIPOS>BOND
     1     1     2    2
     2     2     3   ar
     3     2    23   ar
     4     3     4   ar
     5     4     5   ar
     6     5     6    1
     7     5    22   ar
     8     6     7    1
     9     7     8   ar
    10     7    21   ar
    11     8     9   ar
    12     9    10   ar
    13    10    11   ar
    14    11    12    1
    15    11    21   ar
    16    12    13    1
    17    13    14    2
    18    13    15    2
    19    13    16    1
    20    16    17   ar
    21    16    20   ar
    22    17    18   ar
    23    18    19   ar
    24    19    20   ar
    25    22    23   ar
    26    22    27    1
    27    23    24    1
    28    24    25    1
    29    25    26    1
    30    26    27    1
    31     3    28    1
    32     6    29    1
    33     6    30    1
    34     8    31    1
    35     9    32    1
    36    10    33    1
    37    12    34    1
    38    17    35    1
    39    18    36    1
    40    19    37    1
    41    21    38    1
    42    24    39    1
    43    24    40    1
    44    25    41    1
    45    25    42    1
    46    26    43    1
    47    26    44    1
    48    27    45    1
    49    27    46    1
@<TRIPOS>MOLECULE
../data/bude_mols_rdkit_confs2/molecule_86.pdb
 46 49 0 0 0
SMALL
GASTEIGER

@<TRIPOS>ATOM
      1  O1        -4.6230    0.6460    2.8330 O.2     1  UNL1       -0.2661
      2  C1        -3.8770   -0.0630    2.1210 C.ar    1  UNL1        0.2682
      3  N1        -2.9920   -0.9660    2.6060 N.ar    1  UNL1       -0.2427
      4  N2        -2.2140   -1.7040    1.8240 N.ar    1  UNL1       -0.1753
      5  C2        -2.2480   -1.6060    0.4590 C.ar    1  UNL1        0.0693
      6  C3        -1.3250   -2.3790   -0.3550 C.3     1  UNL1        0.0168
      7  C4        -0.0500   -1.6950   -0.6930 C.ar    1  UNL1       -0.0397
      8  C5         0.2070   -1.0140   -1.8470 C.ar    1  UNL1       -0.0581
      9  C6         1.4470   -0.3940   -2.0670 C.ar    1  UNL1       -0.0597
     10  C7         2.4520   -0.4580   -1.1120 C.ar    1  UNL1       -0.0393
     11  C8         2.2170   -1.1310    0.0450 C.ar    1  UNL1        0.0484
     12  N3         3.1860   -1.2920    1.0490 N.pl3   1  UNL1       -0.2135
     13  S1         3.8990   -0.0190    1.9070 S.O2    1  UNL1        0.1056
     14  O2         2.8650    0.7360    2.7410 O.2     1  UNL1       -0.1470
     15  O3         4.8050   -0.6620    2.9700 O.2     1  UNL1       -0.1470
     16  C9         4.7980    1.1250    0.9730 C.ar    1  UNL1        0.2610
     17  C10        6.1790    1.3370    1.0720 C.ar    1  UNL1        0.0041
     18  C11        6.5110    2.3140    0.1760 C.ar    1  UNL1       -0.0219
     19  C12        5.3310    2.6740   -0.4460 C.ar    1  UNL1        0.0943
     20  O4         4.3730    1.9490    0.0590 O.2     1  UNL1       -0.4449
     21  C13        0.9860   -1.7330    0.2360 C.ar    1  UNL1       -0.0358
     22  C14       -3.1260   -0.7120   -0.0460 C.ar    1  UNL1       -0.0158
     23  C15       -3.9560    0.0780    0.7660 C.ar    1  UNL1        0.0232
     24  C16       -4.8430    1.0110    0.0380 C.3     1  UNL1       -0.0222
     25  C17       -4.1360    1.7770   -1.0660 C.3     1  UNL1       -0.0486
     26  C18       -3.0770    0.9510   -1.7690 C.3     1  UNL1       -0.0487
     27  C19       -3.3300   -0.5370   -1.4990 C.3     1  UNL1       -0.0255
     28 H          -2.9227   -1.0800    3.5814 H       1  UNL1        0.1921
     29 H          -1.8199   -2.6270   -1.2707 H       1  UNL1        0.0377
     30 H          -1.0563   -3.2323    0.2320 H       1  UNL1        0.0377
     31 H          -0.5246   -0.9535   -2.5724 H       1  UNL1        0.0620
     32 H           1.6132    0.1153   -2.9491 H       1  UNL1        0.0618
     33 H           3.3628   -0.0020   -1.2778 H       1  UNL1        0.0636
     34 H           3.4701   -2.2086    1.2689 H       1  UNL1        0.1738
     35 H           6.8277    0.8450    1.7061 H       1  UNL1        0.0670
     36 H           7.4505    2.7031    0.0000 H       1  UNL1        0.0650
     37 H           5.2266    3.3908   -1.1811 H       1  UNL1        0.1030
     38 H           0.8263   -2.2406    1.1202 H       1  UNL1        0.0639
     39 H          -5.2420    1.7153    0.7377 H       1  UNL1        0.0315
     40 H          -5.6080    0.4234   -0.4250 H       1  UNL1        0.0315
     41 H          -3.6688    2.6395   -0.6385 H       1  UNL1        0.0269
     42 H          -4.8723    2.0445   -1.7949 H       1  UNL1        0.0269
     43 H          -2.1098    1.2215   -1.3998 H       1  UNL1        0.0268
     44 H          -3.1201    1.1357   -2.8221 H       1  UNL1        0.0268
     45 H          -4.3302   -0.8022   -1.7713 H       1  UNL1        0.0314
     46 H          -2.6764   -1.1621   -2.0709 H       1  UNL1        0.0314
@<TRIPOS>BOND
     1     1     2    2
     2     2     3   ar
     3     2    23   ar
     4     3     4   ar
     5     4     5   ar
     6     5     6    1
     7     5    22   ar
     8     6     7    1
     9     7     8   ar
    10     7    21   ar
    11     8     9   ar
    12     9    10   ar
    13    10    11   ar
    14    11    12    1
    15    11    21   ar
    16    12    13    1
    17    13    14    2
    18    13    15    2
    19    13    16    1
    20    16    17   ar
    21    16    20   ar
    22    17    18   ar
    23    18    19   ar
    24    19    20   ar
    25    22    23   ar
    26    22    27    1
    27    23    24    1
    28    24    25    1
    29    25    26    1
    30    26    27    1
    31     3    28    1
    32     6    29    1
    33     6    30    1
    34     8    31    1
    35     9    32    1
    36    10    33    1
    37    12    34    1
    38    17    35    1
    39    18    36    1
    40    19    37    1
    41    21    38    1
    42    24    39    1
    43    24    40    1
    44    25    41    1
    45    25    42    1
    46    26    43    1
    47    26    44    1
    48    27    45    1
    49    27    46    1
@<TRIPOS>MOLECULE
../data/bude_mols_rdkit_confs2/molecule_86.pdb
 46 49 0 0 0
SMALL
GASTEIGER

@<TRIPOS>ATOM
      1  O1        -4.3480    2.3370    2.6150 O.2     1  UNL1       -0.2661
      2  C1        -3.6470    1.7750    1.7370 C.ar    1  UNL1        0.2682
      3  N1        -2.3240    1.9560    1.7410 N.ar    1  UNL1       -0.2427
      4  N2        -1.6020    1.3560    0.8100 N.ar    1  UNL1       -0.1753
      5  C2        -2.1120    0.5780   -0.1400 C.ar    1  UNL1        0.0693
      6  C3        -1.2810   -0.0700   -1.1560 C.3     1  UNL1        0.0168
      7  C4         0.1730    0.2440   -0.9960 C.ar    1  UNL1       -0.0397
      8  C5         0.6610    1.3430   -1.6610 C.ar    1  UNL1       -0.0581
      9  C6         1.9960    1.6300   -1.5120 C.ar    1  UNL1       -0.0597
     10  C7         2.8020    0.8120   -0.7040 C.ar    1  UNL1       -0.0393
     11  C8         2.3160   -0.2830   -0.0420 C.ar    1  UNL1        0.0484
     12  N3         3.0630   -1.1220    0.7960 N.pl3   1  UNL1       -0.2135
     13  S1         4.5070   -1.9390    0.4450 S.O2    1  UNL1        0.1056
     14  O2         4.2360   -2.8110   -0.7960 O.2     1  UNL1       -0.1470
     15  O3         4.8600   -2.9450    1.5220 O.2     1  UNL1       -0.1470
     16  C9         5.8710   -0.9450    0.0460 C.ar    1  UNL1        0.2610
     17  C10        7.0160   -0.9190    0.8540 C.ar    1  UNL1        0.0041
     18  C11        7.8960   -0.0500    0.2770 C.ar    1  UNL1       -0.0219
     19  C12        7.2760    0.4290   -0.8570 C.ar    1  UNL1        0.0943
     20  O4         6.1100   -0.1320   -0.9250 O.2     1  UNL1       -0.4449
     21  C13        0.9440   -0.5660   -0.2030 C.ar    1  UNL1       -0.0358
     22  C14       -3.4670    0.3760   -0.1670 C.ar    1  UNL1       -0.0158
     23  C15       -4.2560    0.9930    0.7990 C.ar    1  UNL1        0.0232
     24  C16       -5.7100    0.7460    0.7300 C.3     1  UNL1       -0.0222
     25  C17       -6.0430   -0.7010    0.4980 C.3     1  UNL1       -0.0486
     26  C18       -5.1710   -1.3800   -0.4980 C.3     1  UNL1       -0.0487
     27  C19       -4.1710   -0.4610   -1.1610 C.3     1  UNL1       -0.0255
     28 H          -1.8958    2.5235    2.4220 H       1  UNL1        0.1921
     29 H          -1.5991    0.2625   -2.1220 H       1  UNL1        0.0377
     30 H          -1.3983   -1.1277   -1.0443 H       1  UNL1        0.0377
     31 H           0.0487    1.9296   -2.2492 H       1  UNL1        0.0620
     32 H           2.4060    2.4457   -1.9932 H       1  UNL1        0.0618
     33 H           3.8022    1.0461   -0.6052 H       1  UNL1        0.0636
     34 H           2.7040   -1.2537    1.7032 H       1  UNL1        0.1738
     35 H           7.1655   -1.4562    1.7224 H       1  UNL1        0.0670
     36 H           8.8368    0.1986    0.6207 H       1  UNL1        0.0650
     37 H           7.6678    1.1085   -1.5276 H       1  UNL1        0.1030
     38 H           0.5225   -1.3786    0.2736 H       1  UNL1        0.0639
     39 H          -6.1175    1.3239   -0.0731 H       1  UNL1        0.0315
     40 H          -6.1302    1.0268    1.6731 H       1  UNL1        0.0315
     41 H          -7.0542   -0.7606    0.1533 H       1  UNL1        0.0269
     42 H          -5.8900   -1.2030    1.4305 H       1  UNL1        0.0269
     43 H          -5.7937   -1.8048   -1.2574 H       1  UNL1        0.0268
     44 H          -4.6095   -2.1200    0.0330 H       1  UNL1        0.0268
     45 H          -3.4527   -1.0517   -1.6901 H       1  UNL1        0.0314
     46 H          -4.6992    0.1844   -1.8313 H       1  UNL1        0.0314
@<TRIPOS>BOND
     1     1     2    2
     2     2     3   ar
     3     2    23   ar
     4     3     4   ar
     5     4     5   ar
     6     5     6    1
     7     5    22   ar
     8     6     7    1
     9     7     8   ar
    10     7    21   ar
    11     8     9   ar
    12     9    10   ar
    13    10    11   ar
    14    11    12    1
    15    11    21   ar
    16    12    13    1
    17    13    14    2
    18    13    15    2
    19    13    16    1
    20    16    17   ar
    21    16    20   ar
    22    17    18   ar
    23    18    19   ar
    24    19    20   ar
    25    22    23   ar
    26    22    27    1
    27    23    24    1
    28    24    25    1
    29    25    26    1
    30    26    27    1
    31     3    28    1
    32     6    29    1
    33     6    30    1
    34     8    31    1
    35     9    32    1
    36    10    33    1
    37    12    34    1
    38    17    35    1
    39    18    36    1
    40    19    37    1
    41    21    38    1
    42    24    39    1
    43    24    40    1
    44    25    41    1
    45    25    42    1
    46    26    43    1
    47    26    44    1
    48    27    45    1
    49    27    46    1
@<TRIPOS>MOLECULE
../data/bude_mols_rdkit_confs2/molecule_86.pdb
 46 49 0 0 0
SMALL
GASTEIGER

@<TRIPOS>ATOM
      1  O1        -4.8870   -1.2640   -2.5200 O.2     1  UNL1       -0.2661
      2  C1        -4.1530   -1.2330   -1.5100 C.ar    1  UNL1        0.2682
      3  N1        -3.7670   -2.3550   -0.8620 N.ar    1  UNL1       -0.2427
      4  N2        -3.0020   -2.3520    0.1920 N.ar    1  UNL1       -0.1753
      5  C2        -2.4940   -1.2210    0.7770 C.ar    1  UNL1        0.0693
      6  C3        -1.5980   -1.2900    1.9300 C.3     1  UNL1        0.0168
      7  C4        -0.1830   -1.2560    1.5580 C.ar    1  UNL1       -0.0397
      8  C5         0.4180   -2.4810    1.2120 C.ar    1  UNL1       -0.0581
      9  C6         1.7230   -2.6040    0.8580 C.ar    1  UNL1       -0.0597
     10  C7         2.5100   -1.4430    0.8400 C.ar    1  UNL1       -0.0393
     11  C8         1.9920   -0.2260    1.1630 C.ar    1  UNL1        0.0484
     12  N3         2.7430    0.9450    1.1950 N.pl3   1  UNL1       -0.2135
     13  S1         3.5720    1.6180   -0.1070 S.O2    1  UNL1        0.1056
     14  O2         2.5880    2.0020   -1.2350 O.2     1  UNL1       -0.1470
     15  O3         4.1990    2.9350    0.3860 O.2     1  UNL1       -0.1470
     16  C9         4.8210    0.6410   -0.7840 C.ar    1  UNL1        0.2610
     17  C10        6.1770    0.9620   -0.7490 C.ar    1  UNL1        0.0041
     18  C11        6.8310   -0.0630   -1.3890 C.ar    1  UNL1       -0.0219
     19  C12        5.8720   -0.9420   -1.7770 C.ar    1  UNL1        0.0943
     20  O4         4.7270   -0.4900   -1.4040 O.2     1  UNL1       -0.4449
     21  C13        0.6270   -0.1590    1.5230 C.ar    1  UNL1       -0.0358
     22  C14       -2.8600   -0.0480    0.1570 C.ar    1  UNL1       -0.0158
     23  C15       -3.6670   -0.0580   -0.9570 C.ar    1  UNL1        0.0232
     24  C16       -4.0050    1.2440   -1.5790 C.3     1  UNL1       -0.0222
     25  C17       -4.3070    2.3220   -0.5790 C.3     1  UNL1       -0.0486
     26  C18       -3.7340    2.1080    0.7750 C.3     1  UNL1       -0.0487
     27  C19       -2.4440    1.2750    0.6860 C.3     1  UNL1       -0.0255
     28 H          -4.0816   -3.2222   -1.2059 H       1  UNL1        0.1921
     29 H          -1.7901   -2.2012    2.4570 H       1  UNL1        0.0377
     30 H          -1.7901   -0.4295    2.5363 H       1  UNL1        0.0377
     31 H          -0.1653   -3.3322    1.2283 H       1  UNL1        0.0620
     32 H           2.1231   -3.5224    0.6101 H       1  UNL1        0.0618
     33 H           3.5051   -1.5129    0.5757 H       1  UNL1        0.0636
     34 H           2.7942    1.4221    2.0547 H       1  UNL1        0.1738
     35 H           6.6041    1.8013   -0.3270 H       1  UNL1        0.0670
     36 H           7.8478   -0.1477   -1.5438 H       1  UNL1        0.0650
     37 H           6.0344   -1.8250   -2.2860 H       1  UNL1        0.1030
     38 H           0.2259    0.7592    1.7700 H       1  UNL1        0.0639
     39 H          -4.8642    1.1092   -2.2023 H       1  UNL1        0.0315
     40 H          -3.1474    1.5604   -2.1352 H       1  UNL1        0.0315
     41 H          -5.3701    2.3940   -0.4809 H       1  UNL1        0.0269
     42 H          -3.8510    3.2133   -0.9567 H       1  UNL1        0.0269
     43 H          -4.4470    1.5899    1.3817 H       1  UNL1        0.0268
     44 H          -3.5039    3.0587    1.2087 H       1  UNL1        0.0268
     45 H          -1.7443    1.7394    0.0229 H       1  UNL1        0.0314
     46 H          -1.9622    1.1877    1.6374 H       1  UNL1        0.0314
@<TRIPOS>BOND
     1     1     2    2
     2     2     3   ar
     3     2    23   ar
     4     3     4   ar
     5     4     5   ar
     6     5     6    1
     7     5    22   ar
     8     6     7    1
     9     7     8   ar
    10     7    21   ar
    11     8     9   ar
    12     9    10   ar
    13    10    11   ar
    14    11    12    1
    15    11    21   ar
    16    12    13    1
    17    13    14    2
    18    13    15    2
    19    13    16    1
    20    16    17   ar
    21    16    20   ar
    22    17    18   ar
    23    18    19   ar
    24    19    20   ar
    25    22    23   ar
    26    22    27    1
    27    23    24    1
    28    24    25    1
    29    25    26    1
    30    26    27    1
    31     3    28    1
    32     6    29    1
    33     6    30    1
    34     8    31    1
    35     9    32    1
    36    10    33    1
    37    12    34    1
    38    17    35    1
    39    18    36    1
    40    19    37    1
    41    21    38    1
    42    24    39    1
    43    24    40    1
    44    25    41    1
    45    25    42    1
    46    26    43    1
    47    26    44    1
    48    27    45    1
    49    27    46    1
@<TRIPOS>MOLECULE
../data/bude_mols_rdkit_confs2/molecule_86.pdb
 46 49 0 0 0
SMALL
GASTEIGER

@<TRIPOS>ATOM
      1  O1        -4.9290   -1.5550    1.9560 O.2     1  UNL1       -0.2661
      2  C1        -3.9010   -0.9160    1.5720 C.ar    1  UNL1        0.2682
      3  N1        -2.7950   -0.7800    2.3170 N.ar    1  UNL1       -0.2427
      4  N2        -1.7290   -0.1190    1.9200 N.ar    1  UNL1       -0.1753
      5  C2        -1.6570    0.4940    0.6980 C.ar    1  UNL1        0.0693
      6  C3        -0.4240    1.1670    0.2580 C.3     1  UNL1        0.0168
      7  C4         0.4490    0.2910   -0.5170 C.ar    1  UNL1       -0.0397
      8  C5         0.5000    0.2170   -1.8740 C.ar    1  UNL1       -0.0581
      9  C6         1.3570   -0.6530   -2.5440 C.ar    1  UNL1       -0.0597
     10  C7         2.1700   -1.4550   -1.7830 C.ar    1  UNL1       -0.0393
     11  C8         2.1700   -1.4300   -0.3840 C.ar    1  UNL1        0.0484
     12  N3         3.0440   -2.2680    0.3480 N.pl3   1  UNL1       -0.2135
     13  S1         3.9860   -1.6410    1.6330 S.O2    1  UNL1        0.1056
     14  O2         3.0440   -1.0940    2.6950 O.2     1  UNL1       -0.1470
     15  O3         4.7730   -2.7390    2.3200 O.2     1  UNL1       -0.1470
     16  C9         5.0880   -0.4070    1.0840 C.ar    1  UNL1        0.2610
     17  C10        5.2390    0.0490   -0.2210 C.ar    1  UNL1        0.0041
     18  C11        6.2310    1.0360   -0.1930 C.ar    1  UNL1       -0.0219
     19  C12        6.6130    1.1120    1.1220 C.ar    1  UNL1        0.0943
     20  O4         5.9240    0.2600    1.8170 O.2     1  UNL1       -0.4449
     21  C13        1.2990   -0.5470    0.2040 C.ar    1  UNL1       -0.0358
     22  C14       -2.7790    0.3680   -0.0750 C.ar    1  UNL1       -0.0158
     23  C15       -3.9150   -0.3370    0.3440 C.ar    1  UNL1        0.0232
     24  C16       -5.0430   -0.3970   -0.6220 C.3     1  UNL1       -0.0222
     25  C17       -5.3920    1.0310   -0.9800 C.3     1  UNL1       -0.0486
     26  C18       -4.2050    1.8470   -1.3270 C.3     1  UNL1       -0.0487
     27  C19       -2.9220    1.0240   -1.3970 C.3     1  UNL1       -0.0255
     28 H          -2.7796   -1.1969    3.2087 H       1  UNL1        0.1921
     29 H           0.1091    1.5043    1.1222 H       1  UNL1        0.0377
     30 H          -0.7082    1.9821   -0.3742 H       1  UNL1        0.0377
     31 H          -0.1196    0.8285   -2.4283 H       1  UNL1        0.0620
     32 H           1.3797   -0.6930   -3.5750 H       1  UNL1        0.0618
     33 H           2.8102   -2.1058   -2.2642 H       1  UNL1        0.0636
     34 H           3.1113   -3.2224    0.1159 H       1  UNL1        0.1738
     35 H           4.7194   -0.2776   -1.0507 H       1  UNL1        0.0670
     36 H           6.5949    1.5856   -0.9871 H       1  UNL1        0.0650
     37 H           7.3343    1.7464    1.4991 H       1  UNL1        0.1030
     38 H           1.2717   -0.5008    1.2346 H       1  UNL1        0.0639
     39 H          -5.8858   -0.8804   -0.1738 H       1  UNL1        0.0315
     40 H          -4.7712   -0.9547   -1.4938 H       1  UNL1        0.0315
     41 H          -5.8832    1.4821   -0.1432 H       1  UNL1        0.0269
     42 H          -6.0227    0.9996   -1.8438 H       1  UNL1        0.0269
     43 H          -4.0835    2.6071   -0.5838 H       1  UNL1        0.0268
     44 H          -4.3735    2.2645   -2.2977 H       1  UNL1        0.0268
     45 H          -2.9951    0.2881   -2.1703 H       1  UNL1        0.0314
     46 H          -2.0757    1.6393   -1.6206 H       1  UNL1        0.0314
@<TRIPOS>BOND
     1     1     2    2
     2     2     3   ar
     3     2    23   ar
     4     3     4   ar
     5     4     5   ar
     6     5     6    1
     7     5    22   ar
     8     6     7    1
     9     7     8   ar
    10     7    21   ar
    11     8     9   ar
    12     9    10   ar
    13    10    11   ar
    14    11    12    1
    15    11    21   ar
    16    12    13    1
    17    13    14    2
    18    13    15    2
    19    13    16    1
    20    16    17   ar
    21    16    20   ar
    22    17    18   ar
    23    18    19   ar
    24    19    20   ar
    25    22    23   ar
    26    22    27    1
    27    23    24    1
    28    24    25    1
    29    25    26    1
    30    26    27    1
    31     3    28    1
    32     6    29    1
    33     6    30    1
    34     8    31    1
    35     9    32    1
    36    10    33    1
    37    12    34    1
    38    17    35    1
    39    18    36    1
    40    19    37    1
    41    21    38    1
    42    24    39    1
    43    24    40    1
    44    25    41    1
    45    25    42    1
    46    26    43    1
    47    26    44    1
    48    27    45    1
    49    27    46    1
@<TRIPOS>MOLECULE
../data/bude_mols_rdkit_confs2/molecule_86.pdb
 46 49 0 0 0
SMALL
GASTEIGER

@<TRIPOS>ATOM
      1  O1        -4.3160   -3.3000   -1.3040 O.2     1  UNL1       -0.2661
      2  C1        -3.5900   -2.3290   -1.0040 C.ar    1  UNL1        0.2682
      3  N1        -2.2520   -2.3130   -1.1040 N.ar    1  UNL1       -0.2427
      4  N2        -1.5230   -1.2610   -0.7730 N.ar    1  UNL1       -0.1753
      5  C2        -2.0740   -0.1190   -0.3090 C.ar    1  UNL1        0.0693
      6  C3        -1.3050    1.0680    0.0710 C.3     1  UNL1        0.0168
      7  C4         0.1430    0.9580   -0.1800 C.ar    1  UNL1       -0.0397
      8  C5         0.6620    1.3610   -1.3920 C.ar    1  UNL1       -0.0581
      9  C6         2.0040    1.2820   -1.6820 C.ar    1  UNL1       -0.0597
     10  C7         2.8950    0.7770   -0.7250 C.ar    1  UNL1       -0.0393
     11  C8         2.4300    0.3650    0.4870 C.ar    1  UNL1        0.0484
     12  N3         3.2350   -0.1270    1.5500 N.pl3   1  UNL1       -0.2135
     13  S1         4.8270    0.3380    1.8520 S.O2    1  UNL1        0.1056
     14  O2         5.2960   -0.2600    3.1670 O.2     1  UNL1       -0.1470
     15  O3         4.9200    1.8550    2.0970 O.2     1  UNL1       -0.1470
     16  C9         5.9970   -0.0760    0.6370 C.ar    1  UNL1        0.2610
     17  C10        5.9300   -0.8550   -0.4830 C.ar    1  UNL1        0.0041
     18  C11        7.1610   -0.8510   -1.0900 C.ar    1  UNL1       -0.0219
     19  C12        7.9580   -0.0510   -0.3030 C.ar    1  UNL1        0.0943
     20  O4         7.2430    0.3790    0.6910 O.2     1  UNL1       -0.4449
     21  C13        1.0340    0.4700    0.7330 C.ar    1  UNL1       -0.0358
     22  C14       -3.4480   -0.1020   -0.1940 C.ar    1  UNL1       -0.0158
     23  C15       -4.2270   -1.1980   -0.5370 C.ar    1  UNL1        0.0232
     24  C16       -5.6980   -1.1180   -0.3940 C.3     1  UNL1       -0.0222
     25  C17       -6.0420   -0.3490    0.8230 C.3     1  UNL1       -0.0486
     26  C18       -5.4050    0.9930    0.9360 C.3     1  UNL1       -0.0487
     27  C19       -4.0750    1.1380    0.3090 C.3     1  UNL1       -0.0255
     28 H          -1.7942   -3.1181   -1.4377 H       1  UNL1        0.1921
     29 H          -1.4517    1.2418    1.1165 H       1  UNL1        0.0377
     30 H          -1.6615    1.8722   -0.5381 H       1  UNL1        0.0377
     31 H           0.0199    1.7357   -2.1078 H       1  UNL1        0.0620
     32 H           2.3540    1.5936   -2.6015 H       1  UNL1        0.0618
     33 H           3.9029    0.7174   -0.9387 H       1  UNL1        0.0636
     34 H           2.8322   -0.7899    2.1562 H       1  UNL1        0.1738
     35 H           5.0948   -1.3611   -0.8165 H       1  UNL1        0.0670
     36 H           7.4321   -1.3443   -1.9550 H       1  UNL1        0.0650
     37 H           8.9518    0.1687   -0.4738 H       1  UNL1        0.1030
     38 H           0.6747    0.1612    1.6498 H       1  UNL1        0.0639
     39 H          -6.1016   -2.1059   -0.3160 H       1  UNL1        0.0315
     40 H          -6.1102   -0.6269   -1.2507 H       1  UNL1        0.0315
     41 H          -5.7453   -0.9272    1.6730 H       1  UNL1        0.0269
     42 H          -7.0956   -0.1701    0.7690 H       1  UNL1        0.0269
     43 H          -5.3018    1.2189    1.9768 H       1  UNL1        0.0268
     44 H          -6.0479    1.6613    0.4022 H       1  UNL1        0.0268
     45 H          -4.1760    1.8103   -0.5173 H       1  UNL1        0.0314
     46 H          -3.4298    1.4876    1.0877 H       1  UNL1        0.0314
@<TRIPOS>BOND
     1     1     2    2
     2     2     3   ar
     3     2    23   ar
     4     3     4   ar
     5     4     5   ar
     6     5     6    1
     7     5    22   ar
     8     6     7    1
     9     7     8   ar
    10     7    21   ar
    11     8     9   ar
    12     9    10   ar
    13    10    11   ar
    14    11    12    1
    15    11    21   ar
    16    12    13    1
    17    13    14    2
    18    13    15    2
    19    13    16    1
    20    16    17   ar
    21    16    20   ar
    22    17    18   ar
    23    18    19   ar
    24    19    20   ar
    25    22    23   ar
    26    22    27    1
    27    23    24    1
    28    24    25    1
    29    25    26    1
    30    26    27    1
    31     3    28    1
    32     6    29    1
    33     6    30    1
    34     8    31    1
    35     9    32    1
    36    10    33    1
    37    12    34    1
    38    17    35    1
    39    18    36    1
    40    19    37    1
    41    21    38    1
    42    24    39    1
    43    24    40    1
    44    25    41    1
    45    25    42    1
    46    26    43    1
    47    26    44    1
    48    27    45    1
    49    27    46    1
@<TRIPOS>MOLECULE
../data/bude_mols_rdkit_confs2/molecule_86.pdb
 46 49 0 0 0
SMALL
GASTEIGER

@<TRIPOS>ATOM
      1  O1        -3.2790    1.0510    3.3600 O.2     1  UNL1       -0.2661
      2  C1        -2.8990    0.4280    2.3060 C.ar    1  UNL1        0.2682
      3  N1        -2.5180   -0.8610    2.3780 N.ar    1  UNL1       -0.2427
      4  N2        -2.1230   -1.5260    1.3130 N.ar    1  UNL1       -0.1753
      5  C2        -2.0660   -0.9770    0.0580 C.ar    1  UNL1        0.0693
      6  C3        -1.5910   -1.8070   -1.0500 C.3     1  UNL1        0.0168
      7  C4        -0.2010   -1.6150   -1.4610 C.ar    1  UNL1       -0.0397
      8  C5         0.1090   -0.8700   -2.5680 C.ar    1  UNL1       -0.0581
      9  C6         1.4380   -0.6750   -2.9670 C.ar    1  UNL1       -0.0597
     10  C7         2.4610   -1.2420   -2.2320 C.ar    1  UNL1       -0.0393
     11  C8         2.1760   -1.9930   -1.1180 C.ar    1  UNL1        0.0484
     12  N3         3.2200   -2.5900   -0.3460 N.pl3   1  UNL1       -0.2135
     13  S1         4.6020   -1.6630    0.0830 S.O2    1  UNL1        0.1056
     14  O2         5.3160   -1.2450   -1.1680 O.2     1  UNL1       -0.1470
     15  O3         5.5630   -2.5800    0.8140 O.2     1  UNL1       -0.1470
     16  C9         4.1830   -0.2890    1.0680 C.ar    1  UNL1        0.2610
     17  C10        4.6640   -0.0760    2.3410 C.ar    1  UNL1        0.0041
     18  C11        4.1090    1.1130    2.7980 C.ar    1  UNL1       -0.0219
     19  C12        3.3100    1.5530    1.7490 C.ar    1  UNL1        0.0943
     20  O4         3.3820    0.6960    0.7470 O.2     1  UNL1       -0.4449
     21  C13        0.8460   -2.1580   -0.7630 C.ar    1  UNL1       -0.0358
     22  C14       -2.4470    0.3360   -0.0570 C.ar    1  UNL1       -0.0158
     23  C15       -2.8670    1.0370    1.0820 C.ar    1  UNL1        0.0232
     24  C16       -3.2910    2.4580    0.9760 C.3     1  UNL1       -0.0222
     25  C17       -4.0580    2.5960   -0.3300 C.3     1  UNL1       -0.0486
     26  C18       -3.2800    2.1840   -1.5250 C.3     1  UNL1       -0.0487
     27  C19       -2.4180    0.9760   -1.3820 C.3     1  UNL1       -0.0255
     28 H          -2.5352   -1.3182    3.2497 H       1  UNL1        0.1921
     29 H          -2.2115   -1.6035   -1.8976 H       1  UNL1        0.0377
     30 H          -1.6434   -2.8139   -0.6917 H       1  UNL1        0.0377
     31 H          -0.6520   -0.4436   -3.1195 H       1  UNL1        0.0620
     32 H           1.6512   -0.1113   -3.8047 H       1  UNL1        0.0618
     33 H           3.4417   -1.1009   -2.5207 H       1  UNL1        0.0636
     34 H           3.1477   -3.5295   -0.0608 H       1  UNL1        0.1738
     35 H           5.3155   -0.6861    2.8590 H       1  UNL1        0.0670
     36 H           4.2570    1.5680    3.7124 H       1  UNL1        0.0650
     37 H           2.7465    2.4176    1.7528 H       1  UNL1        0.1030
     38 H           0.6322   -2.7218    0.0745 H       1  UNL1        0.0639
     39 H          -2.4335    3.0979    0.9681 H       1  UNL1        0.0315
     40 H          -3.9013    2.7379    1.8091 H       1  UNL1        0.0315
     41 H          -4.3418    3.6209   -0.4485 H       1  UNL1        0.0269
     42 H          -4.9034    1.9431   -0.2668 H       1  UNL1        0.0269
     43 H          -2.6473    3.0028   -1.7975 H       1  UNL1        0.0268
     44 H          -4.0126    1.9200   -2.2588 H       1  UNL1        0.0268
     45 H          -2.7375    0.2545   -2.1047 H       1  UNL1        0.0314
     46 H          -1.4123    1.3113   -1.5267 H       1  UNL1        0.0314
@<TRIPOS>BOND
     1     1     2    2
     2     2     3   ar
     3     2    23   ar
     4     3     4   ar
     5     4     5   ar
     6     5     6    1
     7     5    22   ar
     8     6     7    1
     9     7     8   ar
    10     7    21   ar
    11     8     9   ar
    12     9    10   ar
    13    10    11   ar
    14    11    12    1
    15    11    21   ar
    16    12    13    1
    17    13    14    2
    18    13    15    2
    19    13    16    1
    20    16    17   ar
    21    16    20   ar
    22    17    18   ar
    23    18    19   ar
    24    19    20   ar
    25    22    23   ar
    26    22    27    1
    27    23    24    1
    28    24    25    1
    29    25    26    1
    30    26    27    1
    31     3    28    1
    32     6    29    1
    33     6    30    1
    34     8    31    1
    35     9    32    1
    36    10    33    1
    37    12    34    1
    38    17    35    1
    39    18    36    1
    40    19    37    1
    41    21    38    1
    42    24    39    1
    43    24    40    1
    44    25    41    1
    45    25    42    1
    46    26    43    1
    47    26    44    1
    48    27    45    1
    49    27    46    1
@<TRIPOS>MOLECULE
../data/bude_mols_rdkit_confs2/molecule_86.pdb
 46 49 0 0 0
SMALL
GASTEIGER

@<TRIPOS>ATOM
      1  O1        -4.9400   -1.8060   -2.1050 O.2     1  UNL1       -0.2661
      2  C1        -3.9810   -1.2050   -1.5150 C.ar    1  UNL1        0.2682
      3  N1        -2.8650   -1.9090   -1.2700 N.ar    1  UNL1       -0.2427
      4  N2        -1.8400   -1.3310   -0.6600 N.ar    1  UNL1       -0.1753
      5  C2        -1.8660   -0.0480   -0.2680 C.ar    1  UNL1        0.0693
      6  C3        -0.7160    0.5800    0.4090 C.3     1  UNL1        0.0168
      7  C4         0.3720   -0.4200    0.5500 C.ar    1  UNL1       -0.0397
      8  C5         0.4300   -1.2180    1.6810 C.ar    1  UNL1       -0.0581
      9  C6         1.4230   -2.1610    1.8530 C.ar    1  UNL1       -0.0597
     10  C7         2.3750   -2.2960    0.8580 C.ar    1  UNL1       -0.0393
     11  C8         2.3570   -1.5260   -0.2830 C.ar    1  UNL1        0.0484
     12  N3         3.3090   -1.6260   -1.3330 N.pl3   1  UNL1       -0.2135
     13  S1         4.9620   -1.7250   -0.9030 S.O2    1  UNL1        0.1056
     14  O2         5.2710   -2.8970   -0.0210 O.2     1  UNL1       -0.1470
     15  O3         5.7950   -1.8460   -2.1280 O.2     1  UNL1       -0.1470
     16  C9         5.4590   -0.2680   -0.0320 C.ar    1  UNL1        0.2610
     17  C10        5.9640   -0.1770    1.2470 C.ar    1  UNL1        0.0041
     18  C11        6.2130    1.1550    1.5130 C.ar    1  UNL1       -0.0219
     19  C12        5.8430    1.8240    0.3650 C.ar    1  UNL1        0.0943
     20  O4         5.4070    0.9390   -0.5100 O.2     1  UNL1       -0.4449
     21  C13        1.3420   -0.5850   -0.4250 C.ar    1  UNL1       -0.0358
     22  C14       -3.0050    0.6960   -0.5110 C.ar    1  UNL1       -0.0158
     23  C15       -4.0680    0.1060   -1.1400 C.ar    1  UNL1        0.0232
     24  C16       -5.2790    0.9140   -1.3850 C.3     1  UNL1       -0.0222
     25  C17       -5.5830    1.5790   -0.0350 C.3     1  UNL1       -0.0486
     26  C18       -4.4750    2.5380    0.3000 C.3     1  UNL1       -0.0487
     27  C19       -3.1090    2.1190   -0.1140 C.3     1  UNL1       -0.0255
     28 H          -2.8078   -2.8532   -1.5429 H       1  UNL1        0.1921
     29 H          -1.0145    0.9233    1.3775 H       1  UNL1        0.0377
     30 H          -0.3683    1.4110   -0.1685 H       1  UNL1        0.0377
     31 H          -0.2878   -1.1044    2.4138 H       1  UNL1        0.0620
     32 H           1.4546   -2.7492    2.7004 H       1  UNL1        0.0618
     33 H           3.1232   -2.9971    0.9751 H       1  UNL1        0.0636
     34 H           3.0270   -1.6379   -2.2762 H       1  UNL1        0.1738
     35 H           6.1273   -0.9655    1.8924 H       1  UNL1        0.0670
     36 H           6.5933    1.5615    2.3820 H       1  UNL1        0.0650
     37 H           5.8980    2.8437    0.2161 H       1  UNL1        0.1030
     38 H           1.3112    0.0016   -1.2735 H       1  UNL1        0.0639
     39 H          -6.0932    0.2906   -1.6905 H       1  UNL1        0.0315
     40 H          -5.1364    1.6308   -2.1665 H       1  UNL1        0.0315
     41 H          -5.6514    0.8302    0.7262 H       1  UNL1        0.0269
     42 H          -6.5119    2.1068   -0.0936 H       1  UNL1        0.0269
     43 H          -4.4689    2.6749    1.3612 H       1  UNL1        0.0268
     44 H          -4.6855    3.4298   -0.2526 H       1  UNL1        0.0268
     45 H          -2.8106    2.7222   -0.9459 H       1  UNL1        0.0314
     46 H          -2.4761    2.2474    0.7391 H       1  UNL1        0.0314
@<TRIPOS>BOND
     1     1     2    2
     2     2     3   ar
     3     2    23   ar
     4     3     4   ar
     5     4     5   ar
     6     5     6    1
     7     5    22   ar
     8     6     7    1
     9     7     8   ar
    10     7    21   ar
    11     8     9   ar
    12     9    10   ar
    13    10    11   ar
    14    11    12    1
    15    11    21   ar
    16    12    13    1
    17    13    14    2
    18    13    15    2
    19    13    16    1
    20    16    17   ar
    21    16    20   ar
    22    17    18   ar
    23    18    19   ar
    24    19    20   ar
    25    22    23   ar
    26    22    27    1
    27    23    24    1
    28    24    25    1
    29    25    26    1
    30    26    27    1
    31     3    28    1
    32     6    29    1
    33     6    30    1
    34     8    31    1
    35     9    32    1
    36    10    33    1
    37    12    34    1
    38    17    35    1
    39    18    36    1
    40    19    37    1
    41    21    38    1
    42    24    39    1
    43    24    40    1
    44    25    41    1
    45    25    42    1
    46    26    43    1
    47    26    44    1
    48    27    45    1
    49    27    46    1
@<TRIPOS>MOLECULE
../data/bude_mols_rdkit_confs2/molecule_86.pdb
 46 49 0 0 0
SMALL
GASTEIGER

@<TRIPOS>ATOM
      1  O1         4.5590    3.1740   -0.4800 O.2     1  UNL1       -0.2661
      2  C1         3.6890    2.2930   -0.6920 C.ar    1  UNL1        0.2682
      3  N1         2.6190    2.5360   -1.5070 N.ar    1  UNL1       -0.2427
      4  N2         1.7190    1.5970   -1.7130 N.ar    1  UNL1       -0.1753
      5  C2         1.8270    0.3650   -1.1250 C.ar    1  UNL1        0.0693
      6  C3         0.7460   -0.5730   -1.3810 C.3     1  UNL1        0.0168
      7  C4        -0.2390   -0.5240   -0.2680 C.ar    1  UNL1       -0.0397
      8  C5        -0.2500   -1.5030    0.6750 C.ar    1  UNL1       -0.0581
      9  C6        -1.1800   -1.4290    1.7180 C.ar    1  UNL1       -0.0597
     10  C7        -2.0700   -0.3740    1.7790 C.ar    1  UNL1       -0.0393
     11  C8        -2.0770    0.6200    0.8410 C.ar    1  UNL1        0.0484
     12  N3        -2.9910    1.7140    0.9000 N.pl3   1  UNL1       -0.2135
     13  S1        -4.6450    1.4040    1.1980 S.O2    1  UNL1        0.1056
     14  O2        -4.7760    0.7290    2.5320 O.2     1  UNL1       -0.1470
     15  O3        -5.3790    2.7480    1.2260 O.2     1  UNL1       -0.1470
     16  C9        -5.3650    0.4100   -0.0390 C.ar    1  UNL1        0.2610
     17  C10       -5.9430   -0.8160    0.1690 C.ar    1  UNL1        0.0041
     18  C11       -6.3850   -1.2530   -1.0790 C.ar    1  UNL1       -0.0219
     19  C12       -6.0380   -0.2460   -1.9750 C.ar    1  UNL1        0.0943
     20  O4        -5.4360    0.7140   -1.2990 O.2     1  UNL1       -0.4449
     21  C13       -1.1460    0.5420   -0.1970 C.ar    1  UNL1       -0.0358
     22  C14        2.8730    0.0590   -0.3010 C.ar    1  UNL1       -0.0158
     23  C15        3.8030    1.0550   -0.0970 C.ar    1  UNL1        0.0232
     24  C16        4.9530    0.7080    0.8150 C.3     1  UNL1       -0.0222
     25  C17        5.4720   -0.6070    0.2900 C.3     1  UNL1       -0.0486
     26  C18        4.4520   -1.6990    0.3530 C.3     1  UNL1       -0.0487
     27  C19        3.0140   -1.2470    0.3050 C.3     1  UNL1       -0.0255
     28 H           2.5210    3.4144   -1.9407 H       1  UNL1        0.1921
     29 H           1.1455   -1.5626   -1.4582 H       1  UNL1        0.0377
     30 H           0.2582   -0.3081   -2.2958 H       1  UNL1        0.0377
     31 H           0.4171   -2.2886    0.6225 H       1  UNL1        0.0620
     32 H          -1.2011   -2.1635    2.4426 H       1  UNL1        0.0618
     33 H          -2.7490   -0.3354    2.5552 H       1  UNL1        0.0636
     34 H          -2.6726    2.6366    0.7706 H       1  UNL1        0.1738
     35 H          -6.0327   -1.3147    1.0681 H       1  UNL1        0.0670
     36 H          -6.8688   -2.1389   -1.2938 H       1  UNL1        0.0650
     37 H          -6.2198   -0.2496   -2.9908 H       1  UNL1        0.1030
     38 H          -1.1257    1.2779   -0.9202 H       1  UNL1        0.0639
     39 H           4.6160    0.6047    1.8253 H       1  UNL1        0.0315
     40 H           5.7070    1.4672    0.8239 H       1  UNL1        0.0315
     41 H           6.3203   -0.8974    0.8739 H       1  UNL1        0.0269
     42 H           5.7285   -0.4646   -0.7390 H       1  UNL1        0.0269
     43 H           4.5988   -2.2350    1.2673 H       1  UNL1        0.0268
     44 H           4.6029   -2.2932   -0.5240 H       1  UNL1        0.0268
     45 H           2.4490   -1.9545   -0.2652 H       1  UNL1        0.0314
     46 H           2.6553   -1.1834    1.3111 H       1  UNL1        0.0314
@<TRIPOS>BOND
     1     1     2    2
     2     2     3   ar
     3     2    23   ar
     4     3     4   ar
     5     4     5   ar
     6     5     6    1
     7     5    22   ar
     8     6     7    1
     9     7     8   ar
    10     7    21   ar
    11     8     9   ar
    12     9    10   ar
    13    10    11   ar
    14    11    12    1
    15    11    21   ar
    16    12    13    1
    17    13    14    2
    18    13    15    2
    19    13    16    1
    20    16    17   ar
    21    16    20   ar
    22    17    18   ar
    23    18    19   ar
    24    19    20   ar
    25    22    23   ar
    26    22    27    1
    27    23    24    1
    28    24    25    1
    29    25    26    1
    30    26    27    1
    31     3    28    1
    32     6    29    1
    33     6    30    1
    34     8    31    1
    35     9    32    1
    36    10    33    1
    37    12    34    1
    38    17    35    1
    39    18    36    1
    40    19    37    1
    41    21    38    1
    42    24    39    1
    43    24    40    1
    44    25    41    1
    45    25    42    1
    46    26    43    1
    47    26    44    1
    48    27    45    1
    49    27    46    1
@<TRIPOS>MOLECULE
../data/bude_mols_rdkit_confs2/molecule_86.pdb
 46 49 0 0 0
SMALL
GASTEIGER

@<TRIPOS>ATOM
      1  O1        -4.3750    0.7770    3.2840 O.2     1  UNL1       -0.2661
      2  C1        -3.7200    0.0750    2.4740 C.ar    1  UNL1        0.2682
      3  N1        -2.7980   -0.8340    2.8530 N.ar    1  UNL1       -0.2427
      4  N2        -2.1190   -1.5620    1.9940 N.ar    1  UNL1       -0.1753
      5  C2        -2.2830   -1.4650    0.6450 C.ar    1  UNL1        0.0693
      6  C3        -1.4540   -2.2590   -0.2600 C.3     1  UNL1        0.0168
      7  C4        -0.2400   -1.5300   -0.7570 C.ar    1  UNL1       -0.0397
      8  C5        -0.1320   -0.9080   -1.9650 C.ar    1  UNL1       -0.0581
      9  C6         1.0370   -0.2480   -2.3220 C.ar    1  UNL1       -0.0597
     10  C7         2.1110   -0.2280   -1.4250 C.ar    1  UNL1       -0.0393
     11  C8         2.0530   -0.8290   -0.2170 C.ar    1  UNL1        0.0484
     12  N3         3.0550   -0.9300    0.7690 N.pl3   1  UNL1       -0.2135
     13  S1         4.7370   -1.0700    0.5790 S.O2    1  UNL1        0.1056
     14  O2         5.4400   -1.2390    1.9210 O.2     1  UNL1       -0.1470
     15  O3         5.1060   -2.3280   -0.1910 O.2     1  UNL1       -0.1470
     16  C9         5.4880    0.3220   -0.1650 C.ar    1  UNL1        0.2610
     17  C10        4.9560    1.5420   -0.4770 C.ar    1  UNL1        0.0041
     18  C11        5.9280    2.3250   -1.0450 C.ar    1  UNL1       -0.0219
     19  C12        7.0560    1.5320   -1.0600 C.ar    1  UNL1        0.0943
     20  O4         6.7680    0.3840   -0.5460 O.2     1  UNL1       -0.4449
     21  C13        0.8440   -1.4800    0.0860 C.ar    1  UNL1       -0.0358
     22  C14       -3.2090   -0.5590    0.2140 C.ar    1  UNL1       -0.0158
     23  C15       -3.9360    0.2230    1.1290 C.ar    1  UNL1        0.0232
     24  C16       -4.8960    1.1790    0.5370 C.3     1  UNL1       -0.0222
     25  C17       -4.1340    2.0040   -0.4950 C.3     1  UNL1       -0.0486
     26  C18       -3.3520    1.1460   -1.4650 C.3     1  UNL1       -0.0487
     27  C19       -3.5770   -0.3300   -1.1910 C.3     1  UNL1       -0.0255
     28 H          -2.6261   -0.9576    3.8145 H       1  UNL1        0.1921
     29 H          -2.0485   -2.5409   -1.1038 H       1  UNL1        0.0377
     30 H          -1.1068   -3.1060    0.2940 H       1  UNL1        0.0377
     31 H          -0.9277   -0.9276   -2.6219 H       1  UNL1        0.0620
     32 H           1.1126    0.2219   -3.2377 H       1  UNL1        0.0618
     33 H           2.9773    0.2630   -1.6960 H       1  UNL1        0.0636
     34 H           2.7346   -0.9177    1.6998 H       1  UNL1        0.1738
     35 H           3.9784    1.8282   -0.3114 H       1  UNL1        0.0670
     36 H           5.8356    3.2946   -1.3862 H       1  UNL1        0.0650
     37 H           7.9806    1.8114   -1.4234 H       1  UNL1        0.1030
     38 H           0.7657   -1.9508    1.0010 H       1  UNL1        0.0639
     39 H          -5.2922    1.8189    1.2976 H       1  UNL1        0.0315
     40 H          -5.7139    0.6618    0.0805 H       1  UNL1        0.0315
     41 H          -3.4520    2.6492    0.0182 H       1  UNL1        0.0269
     42 H          -4.8531    2.5587   -1.0608 H       1  UNL1        0.0269
     43 H          -2.3096    1.3655   -1.3642 H       1  UNL1        0.0268
     44 H          -3.6870    1.3629   -2.4578 H       1  UNL1        0.0268
     45 H          -4.6048   -0.5820   -1.3489 H       1  UNL1        0.0314
     46 H          -2.9893   -0.9375   -1.8471 H       1  UNL1        0.0314
@<TRIPOS>BOND
     1     1     2    2
     2     2     3   ar
     3     2    23   ar
     4     3     4   ar
     5     4     5   ar
     6     5     6    1
     7     5    22   ar
     8     6     7    1
     9     7     8   ar
    10     7    21   ar
    11     8     9   ar
    12     9    10   ar
    13    10    11   ar
    14    11    12    1
    15    11    21   ar
    16    12    13    1
    17    13    14    2
    18    13    15    2
    19    13    16    1
    20    16    17   ar
    21    16    20   ar
    22    17    18   ar
    23    18    19   ar
    24    19    20   ar
    25    22    23   ar
    26    22    27    1
    27    23    24    1
    28    24    25    1
    29    25    26    1
    30    26    27    1
    31     3    28    1
    32     6    29    1
    33     6    30    1
    34     8    31    1
    35     9    32    1
    36    10    33    1
    37    12    34    1
    38    17    35    1
    39    18    36    1
    40    19    37    1
    41    21    38    1
    42    24    39    1
    43    24    40    1
    44    25    41    1
    45    25    42    1
    46    26    43    1
    47    26    44    1
    48    27    45    1
    49    27    46    1
@<TRIPOS>MOLECULE
../data/bude_mols_rdkit_confs2/molecule_86.pdb
 46 49 0 0 0
SMALL
GASTEIGER

@<TRIPOS>ATOM
      1  O1        -4.6790    3.2740   -0.3330 O.2     1  UNL1       -0.2661
      2  C1        -3.7470    2.5790    0.1470 C.ar    1  UNL1        0.2682
      3  N1        -2.5960    3.0810    0.5890 N.ar    1  UNL1       -0.2427
      4  N2        -1.6280    2.3350    1.0890 N.ar    1  UNL1       -0.1753
      5  C2        -1.7380    0.9680    1.1920 C.ar    1  UNL1        0.0693
      6  C3        -0.6350    0.1580    1.7110 C.3     1  UNL1        0.0168
      7  C4         0.2350   -0.4630    0.7070 C.ar    1  UNL1       -0.0397
      8  C5         0.2750   -1.7950    0.4890 C.ar    1  UNL1       -0.0581
      9  C6         1.0800   -2.3780   -0.4630 C.ar    1  UNL1       -0.0597
     10  C7         1.8840   -1.5760   -1.2300 C.ar    1  UNL1       -0.0393
     11  C8         1.8720   -0.2160   -1.0360 C.ar    1  UNL1        0.0484
     12  N3         2.7060    0.5950   -1.8390 N.pl3   1  UNL1       -0.2135
     13  S1         4.3420    0.1660   -2.1260 S.O2    1  UNL1        0.1056
     14  O2         5.0400    1.2390   -2.9540 O.2     1  UNL1       -0.1470
     15  O3         4.4460   -1.1280   -2.8630 O.2     1  UNL1       -0.1470
     16  C9         5.2300    0.1190   -0.6110 C.ar    1  UNL1        0.2610
     17  C10        4.7590    0.3790    0.6560 C.ar    1  UNL1        0.0041
     18  C11        5.8310    0.2130    1.5250 C.ar    1  UNL1       -0.0219
     19  C12        6.9020   -0.1400    0.7430 C.ar    1  UNL1        0.0943
     20  O4         6.5060   -0.1840   -0.4990 O.2     1  UNL1       -0.4449
     21  C13        1.0410    0.3490   -0.0600 C.ar    1  UNL1       -0.0358
     22  C14       -2.8990    0.4340    0.7520 C.ar    1  UNL1       -0.0158
     23  C15       -3.9330    1.2260    0.2160 C.ar    1  UNL1        0.0232
     24  C16       -5.1380    0.5030   -0.2370 C.3     1  UNL1       -0.0222
     25  C17       -4.6830   -0.6070   -1.1680 C.3     1  UNL1       -0.0486
     26  C18       -3.5420   -1.4230   -0.6110 C.3     1  UNL1       -0.0487
     27  C19       -3.2120   -1.0000    0.8190 C.3     1  UNL1       -0.0255
     28 H          -2.4600    4.0549    0.5408 H       1  UNL1        0.1921
     29 H          -1.0558   -0.6239    2.3080 H       1  UNL1        0.0377
     30 H          -0.0102    0.8359    2.2541 H       1  UNL1        0.0377
     31 H          -0.3269   -2.4051    1.0638 H       1  UNL1        0.0620
     32 H           1.0782   -3.4013   -0.5969 H       1  UNL1        0.0618
     33 H           2.4956   -1.9917   -1.9499 H       1  UNL1        0.0636
     34 H           2.3428    1.4178   -2.2393 H       1  UNL1        0.1738
     35 H           3.7954    0.6458    0.9115 H       1  UNL1        0.0670
     36 H           5.8231    0.3312    2.5502 H       1  UNL1        0.0650
     37 H           7.8573   -0.3370    1.0800 H       1  UNL1        0.1030
     38 H           1.0327    1.3709    0.0840 H       1  UNL1        0.0639
     39 H          -5.7908    1.1718   -0.7580 H       1  UNL1        0.0315
     40 H          -5.6706    0.0988    0.5984 H       1  UNL1        0.0315
     41 H          -4.3675   -0.1679   -2.0913 H       1  UNL1        0.0269
     42 H          -5.5123   -1.2702   -1.2996 H       1  UNL1        0.0269
     43 H          -2.6779   -1.2812   -1.2259 H       1  UNL1        0.0268
     44 H          -3.8322   -2.4529   -0.6030 H       1  UNL1        0.0268
     45 H          -4.0519   -1.1682    1.4602 H       1  UNL1        0.0314
     46 H          -2.3934   -1.5629    1.2165 H       1  UNL1        0.0314
@<TRIPOS>BOND
     1     1     2    2
     2     2     3   ar
     3     2    23   ar
     4     3     4   ar
     5     4     5   ar
     6     5     6    1
     7     5    22   ar
     8     6     7    1
     9     7     8   ar
    10     7    21   ar
    11     8     9   ar
    12     9    10   ar
    13    10    11   ar
    14    11    12    1
    15    11    21   ar
    16    12    13    1
    17    13    14    2
    18    13    15    2
    19    13    16    1
    20    16    17   ar
    21    16    20   ar
    22    17    18   ar
    23    18    19   ar
    24    19    20   ar
    25    22    23   ar
    26    22    27    1
    27    23    24    1
    28    24    25    1
    29    25    26    1
    30    26    27    1
    31     3    28    1
    32     6    29    1
    33     6    30    1
    34     8    31    1
    35     9    32    1
    36    10    33    1
    37    12    34    1
    38    17    35    1
    39    18    36    1
    40    19    37    1
    41    21    38    1
    42    24    39    1
    43    24    40    1
    44    25    41    1
    45    25    42    1
    46    26    43    1
    47    26    44    1
    48    27    45    1
    49    27    46    1
@<TRIPOS>MOLECULE
../data/bude_mols_rdkit_confs2/molecule_86.pdb
 46 49 0 0 0
SMALL
GASTEIGER

@<TRIPOS>ATOM
      1  O1        -3.8890   -1.3740    3.2240 O.2     1  UNL1       -0.2661
      2  C1        -3.2210   -0.9220    2.2670 C.ar    1  UNL1        0.2682
      3  N1        -1.8980   -0.7870    2.2260 N.ar    1  UNL1       -0.2427
      4  N2        -1.2440   -0.2930    1.1660 N.ar    1  UNL1       -0.1753
      5  C2        -1.9460    0.0930    0.0700 C.ar    1  UNL1        0.0693
      6  C3        -1.2450    0.6410   -1.1110 C.3     1  UNL1        0.0168
      7  C4         0.2110    0.6650   -0.8530 C.ar    1  UNL1       -0.0397
      8  C5         0.7860    1.7840   -0.2780 C.ar    1  UNL1       -0.0581
      9  C6         2.1490    1.8360   -0.0240 C.ar    1  UNL1       -0.0597
     10  C7         2.9330    0.7350   -0.3600 C.ar    1  UNL1       -0.0393
     11  C8         2.3660   -0.3830   -0.9330 C.ar    1  UNL1        0.0484
     12  N3         3.1860   -1.4700   -1.2610 N.pl3   1  UNL1       -0.2135
     13  S1         4.3750   -2.1370   -0.2200 S.O2    1  UNL1        0.1056
     14  O2         5.0650   -3.2950   -0.8530 O.2     1  UNL1       -0.1470
     15  O3         3.7780   -2.6230    1.0710 O.2     1  UNL1       -0.1470
     16  C9         5.6360   -0.9650    0.1900 C.ar    1  UNL1        0.2610
     17  C10        5.9880   -0.5190    1.4360 C.ar    1  UNL1        0.0041
     18  C11        7.0100    0.3770    1.2760 C.ar    1  UNL1       -0.0219
     19  C12        7.2540    0.4490   -0.1010 C.ar    1  UNL1        0.0943
     20  O4         6.4140   -0.3630   -0.6880 O.2     1  UNL1       -0.4449
     21  C13        0.9850   -0.4160   -1.1820 C.ar    1  UNL1       -0.0358
     22  C14       -3.3130   -0.0170    0.0390 C.ar    1  UNL1       -0.0158
     23  C15       -3.9530   -0.5260    1.1390 C.ar    1  UNL1        0.0232
     24  C16       -5.4230   -0.6370    1.0800 C.3     1  UNL1       -0.0222
     25  C17       -6.1000    0.4970    0.3580 C.3     1  UNL1       -0.0486
     26  C18       -5.2640    1.2030   -0.6490 C.3     1  UNL1       -0.0487
     27  C19       -4.0820    0.4030   -1.1450 C.3     1  UNL1       -0.0255
     28 H          -1.3743   -1.0634    3.0125 H       1  UNL1        0.1921
     29 H          -1.5900    1.6359   -1.3007 H       1  UNL1        0.0377
     30 H          -1.4462    0.0252   -1.9626 H       1  UNL1        0.0377
     31 H           0.1923    2.5922   -0.0343 H       1  UNL1        0.0620
     32 H           2.5732    2.6733    0.4051 H       1  UNL1        0.0618
     33 H           3.9486    0.7565   -0.1781 H       1  UNL1        0.0636
     34 H           3.0723   -1.8790   -2.1493 H       1  UNL1        0.1738
     35 H           5.5612   -0.8057    2.3308 H       1  UNL1        0.0670
     36 H           7.5020    0.8954    2.0205 H       1  UNL1        0.0650
     37 H           7.9651    1.0345   -0.5663 H       1  UNL1        0.1030
     38 H           0.5551   -1.2505   -1.6108 H       1  UNL1        0.0639
     39 H          -5.7975   -0.6678    2.0819 H       1  UNL1        0.0315
     40 H          -5.6417   -1.5268    0.5275 H       1  UNL1        0.0315
     41 H          -6.4121    1.2137    1.0886 H       1  UNL1        0.0269
     42 H          -6.9091    0.0576   -0.1871 H       1  UNL1        0.0269
     43 H          -4.8964    2.1052   -0.2065 H       1  UNL1        0.0268
     44 H          -5.8911    1.3822   -1.4973 H       1  UNL1        0.0268
     45 H          -4.4214   -0.4559   -1.6854 H       1  UNL1        0.0314
     46 H          -3.4757    0.9894   -1.8034 H       1  UNL1        0.0314
@<TRIPOS>BOND
     1     1     2    2
     2     2     3   ar
     3     2    23   ar
     4     3     4   ar
     5     4     5   ar
     6     5     6    1
     7     5    22   ar
     8     6     7    1
     9     7     8   ar
    10     7    21   ar
    11     8     9   ar
    12     9    10   ar
    13    10    11   ar
    14    11    12    1
    15    11    21   ar
    16    12    13    1
    17    13    14    2
    18    13    15    2
    19    13    16    1
    20    16    17   ar
    21    16    20   ar
    22    17    18   ar
    23    18    19   ar
    24    19    20   ar
    25    22    23   ar
    26    22    27    1
    27    23    24    1
    28    24    25    1
    29    25    26    1
    30    26    27    1
    31     3    28    1
    32     6    29    1
    33     6    30    1
    34     8    31    1
    35     9    32    1
    36    10    33    1
    37    12    34    1
    38    17    35    1
    39    18    36    1
    40    19    37    1
    41    21    38    1
    42    24    39    1
    43    24    40    1
    44    25    41    1
    45    25    42    1
    46    26    43    1
    47    26    44    1
    48    27    45    1
    49    27    46    1
@<TRIPOS>MOLECULE
../data/bude_mols_rdkit_confs2/molecule_86.pdb
 46 49 0 0 0
SMALL
GASTEIGER

@<TRIPOS>ATOM
      1  O1        -4.1640   -3.1050    1.4730 O.2     1  UNL1       -0.2661
      2  C1        -3.4770   -2.1750    0.9690 C.ar    1  UNL1        0.2682
      3  N1        -2.1570   -2.2960    0.7440 N.ar    1  UNL1       -0.2427
      4  N2        -1.4910   -1.2820    0.2120 N.ar    1  UNL1       -0.1753
      5  C2        -2.1030   -0.0970   -0.1210 C.ar    1  UNL1        0.0693
      6  C3        -1.2920    1.0250   -0.6470 C.3     1  UNL1        0.0168
      7  C4         0.0210    1.0020    0.0730 C.ar    1  UNL1       -0.0397
      8  C5         0.1710    1.3880    1.3520 C.ar    1  UNL1       -0.0581
      9  C6         1.4320    1.3510    1.9260 C.ar    1  UNL1       -0.0597
     10  C7         2.5050    0.9140    1.1510 C.ar    1  UNL1       -0.0393
     11  C8         2.3540    0.5200   -0.1570 C.ar    1  UNL1        0.0484
     12  N3         3.4040    0.0920   -1.0120 N.pl3   1  UNL1       -0.2135
     13  S1         4.9310    0.9190   -1.0560 S.O2    1  UNL1        0.1056
     14  O2         5.1590    1.3430   -2.4840 O.2     1  UNL1       -0.1470
     15  O3         4.8250    2.1400   -0.1880 O.2     1  UNL1       -0.1470
     16  C9         6.1360   -0.2040   -0.5170 C.ar    1  UNL1        0.2610
     17  C10        7.2400   -0.5900   -1.2360 C.ar    1  UNL1        0.0041
     18  C11        7.9470   -1.4800   -0.4820 C.ar    1  UNL1       -0.0219
     19  C12        7.2470   -1.6130    0.6900 C.ar    1  UNL1        0.0943
     20  O4         6.1730   -0.8290    0.6170 O.2     1  UNL1       -0.4449
     21  C13        1.0900    0.5600   -0.7160 C.ar    1  UNL1       -0.0358
     22  C14       -3.4420    0.0710    0.0890 C.ar    1  UNL1       -0.0158
     23  C15       -4.1410   -0.9820    0.6410 C.ar    1  UNL1        0.0232
     24  C16       -5.5930   -0.8260    0.8600 C.3     1  UNL1       -0.0222
     25  C17       -6.2720   -0.0780   -0.2360 C.3     1  UNL1       -0.0486
     26  C18       -5.3790    0.7310   -1.1270 C.3     1  UNL1       -0.0487
     27  C19       -4.2180    1.2740   -0.2610 C.3     1  UNL1       -0.0255
     28 H          -1.6892   -3.1315    0.9728 H       1  UNL1        0.1921
     29 H          -1.7919    1.9538   -0.4672 H       1  UNL1        0.0377
     30 H          -1.1469    0.9251   -1.7024 H       1  UNL1        0.0377
     31 H          -0.6430    1.7080    1.8998 H       1  UNL1        0.0620
     32 H           1.5735    1.6408    2.9063 H       1  UNL1        0.0618
     33 H           3.4458    0.8853    1.5742 H       1  UNL1        0.0636
     34 H           3.2634   -0.6906   -1.5925 H       1  UNL1        0.1738
     35 H           7.4912   -0.2636   -2.1822 H       1  UNL1        0.0670
     36 H           8.8262   -1.9548   -0.7399 H       1  UNL1        0.0650
     37 H           7.5067   -2.2144    1.4875 H       1  UNL1        0.1030
     38 H           0.9376    0.2700   -1.6946 H       1  UNL1        0.0639
     39 H          -5.7442   -0.2972    1.7778 H       1  UNL1        0.0315
     40 H          -6.0189   -1.8072    0.8884 H       1  UNL1        0.0315
     41 H          -6.9796    0.5884    0.2113 H       1  UNL1        0.0269
     42 H          -6.7117   -0.8229   -0.8659 H       1  UNL1        0.0269
     43 H          -5.9285    1.5450   -1.5517 H       1  UNL1        0.0268
     44 H          -5.0006    0.1279   -1.9257 H       1  UNL1        0.0268
     45 H          -3.6191    1.9645   -0.8173 H       1  UNL1        0.0314
     46 H          -4.5613    1.8079    0.6004 H       1  UNL1        0.0314
@<TRIPOS>BOND
     1     1     2    2
     2     2     3   ar
     3     2    23   ar
     4     3     4   ar
     5     4     5   ar
     6     5     6    1
     7     5    22   ar
     8     6     7    1
     9     7     8   ar
    10     7    21   ar
    11     8     9   ar
    12     9    10   ar
    13    10    11   ar
    14    11    12    1
    15    11    21   ar
    16    12    13    1
    17    13    14    2
    18    13    15    2
    19    13    16    1
    20    16    17   ar
    21    16    20   ar
    22    17    18   ar
    23    18    19   ar
    24    19    20   ar
    25    22    23   ar
    26    22    27    1
    27    23    24    1
    28    24    25    1
    29    25    26    1
    30    26    27    1
    31     3    28    1
    32     6    29    1
    33     6    30    1
    34     8    31    1
    35     9    32    1
    36    10    33    1
    37    12    34    1
    38    17    35    1
    39    18    36    1
    40    19    37    1
    41    21    38    1
    42    24    39    1
    43    24    40    1
    44    25    41    1
    45    25    42    1
    46    26    43    1
    47    26    44    1
    48    27    45    1
    49    27    46    1
@<TRIPOS>MOLECULE
../data/bude_mols_rdkit_confs2/molecule_86.pdb
 46 49 0 0 0
SMALL
GASTEIGER

@<TRIPOS>ATOM
      1  O1        -4.5320    2.8920    1.9700 O.2     1  UNL1       -0.2661
      2  C1        -3.8140    2.3090    1.1090 C.ar    1  UNL1        0.2682
      3  N1        -3.0320    3.0290    0.3050 N.ar    1  UNL1       -0.2427
      4  N2        -2.2850    2.4460   -0.5860 N.ar    1  UNL1       -0.1753
      5  C2        -2.2520    1.0790   -0.7580 C.ar    1  UNL1        0.0693
      6  C3        -1.3580    0.5240   -1.7710 C.3     1  UNL1        0.0168
      7  C4        -0.0630    0.0250   -1.2290 C.ar    1  UNL1       -0.0397
      8  C5         0.1880   -1.3020   -0.9960 C.ar    1  UNL1       -0.0581
      9  C6         1.4190   -1.6600   -0.4880 C.ar    1  UNL1       -0.0597
     10  C7         2.3730   -0.7030   -0.2220 C.ar    1  UNL1       -0.0393
     11  C8         2.1600    0.6400   -0.4430 C.ar    1  UNL1        0.0484
     12  N3         3.1150    1.6590   -0.1780 N.pl3   1  UNL1       -0.2135
     13  S1         4.7410    1.4900   -0.6850 S.O2    1  UNL1        0.1056
     14  O2         4.8150    1.3130   -2.1790 O.2     1  UNL1       -0.1470
     15  O3         5.5650    2.7000   -0.3370 O.2     1  UNL1       -0.1470
     16  C9         5.5070    0.1120    0.0640 C.ar    1  UNL1        0.2610
     17  C10        6.0810   -0.9700   -0.6150 C.ar    1  UNL1        0.0041
     18  C11        6.5720   -1.8310    0.3390 C.ar    1  UNL1       -0.0219
     19  C12        6.2850   -1.2540    1.5530 C.ar    1  UNL1        0.0943
     20  O4         5.6620   -0.1180    1.3620 O.2     1  UNL1       -0.4449
     21  C13        0.9240    0.9790   -0.9500 C.ar    1  UNL1       -0.0358
     22  C14       -3.0380    0.3110    0.0440 C.ar    1  UNL1       -0.0158
     23  C15       -3.8340    0.9620    0.9970 C.ar    1  UNL1        0.0232
     24  C16       -4.6860    0.0880    1.8490 C.3     1  UNL1       -0.0222
     25  C17       -5.3790   -0.8600    0.8570 C.3     1  UNL1       -0.0486
     26  C18       -4.3490   -1.7980    0.3300 C.3     1  UNL1       -0.0487
     27  C19       -3.0700   -1.1540   -0.0920 C.3     1  UNL1       -0.0255
     28 H          -3.0197    4.0101    0.3862 H       1  UNL1        0.1921
     29 H          -1.1495    1.2880   -2.4906 H       1  UNL1        0.0377
     30 H          -1.8599   -0.3188   -2.1983 H       1  UNL1        0.0377
     31 H          -0.5283   -2.0174   -1.1963 H       1  UNL1        0.0620
     32 H           1.6273   -2.6541   -0.3055 H       1  UNL1        0.0618
     33 H           3.2840   -1.0040    0.1581 H       1  UNL1        0.0636
     34 H           2.8377    2.4720    0.3031 H       1  UNL1        0.1738
     35 H           6.1270   -1.0974   -1.6381 H       1  UNL1        0.0670
     36 H           7.0569   -2.7273    0.1763 H       1  UNL1        0.0650
     37 H           6.5238   -1.6545    2.4737 H       1  UNL1        0.1030
     38 H           0.7178    1.9739   -1.1310 H       1  UNL1        0.0639
     39 H          -5.4079    0.6691    2.3839 H       1  UNL1        0.0315
     40 H          -4.1178   -0.4396    2.5864 H       1  UNL1        0.0315
     41 H          -5.8049   -0.2975    0.0526 H       1  UNL1        0.0269
     42 H          -6.1642   -1.4009    1.3426 H       1  UNL1        0.0269
     43 H          -4.7623   -2.3034   -0.5178 H       1  UNL1        0.0268
     44 H          -4.1018   -2.4564    1.1364 H       1  UNL1        0.0268
     45 H          -2.2807   -1.5603    0.5053 H       1  UNL1        0.0314
     46 H          -2.9611   -1.3603   -1.1363 H       1  UNL1        0.0314
@<TRIPOS>BOND
     1     1     2    2
     2     2     3   ar
     3     2    23   ar
     4     3     4   ar
     5     4     5   ar
     6     5     6    1
     7     5    22   ar
     8     6     7    1
     9     7     8   ar
    10     7    21   ar
    11     8     9   ar
    12     9    10   ar
    13    10    11   ar
    14    11    12    1
    15    11    21   ar
    16    12    13    1
    17    13    14    2
    18    13    15    2
    19    13    16    1
    20    16    17   ar
    21    16    20   ar
    22    17    18   ar
    23    18    19   ar
    24    19    20   ar
    25    22    23   ar
    26    22    27    1
    27    23    24    1
    28    24    25    1
    29    25    26    1
    30    26    27    1
    31     3    28    1
    32     6    29    1
    33     6    30    1
    34     8    31    1
    35     9    32    1
    36    10    33    1
    37    12    34    1
    38    17    35    1
    39    18    36    1
    40    19    37    1
    41    21    38    1
    42    24    39    1
    43    24    40    1
    44    25    41    1
    45    25    42    1
    46    26    43    1
    47    26    44    1
    48    27    45    1
    49    27    46    1
@<TRIPOS>MOLECULE
../data/bude_mols_rdkit_confs2/molecule_86.pdb
 46 49 0 0 0
SMALL
GASTEIGER

@<TRIPOS>ATOM
      1  O1        -4.2890   -2.6430   -2.0610 O.2     1  UNL1       -0.2661
      2  C1        -3.3750   -1.8170   -1.8240 C.ar    1  UNL1        0.2682
      3  N1        -2.1150   -2.0040   -2.2840 N.ar    1  UNL1       -0.2427
      4  N2        -1.1370   -1.1560   -2.0500 N.ar    1  UNL1       -0.1753
      5  C2        -1.3620   -0.0210   -1.3120 C.ar    1  UNL1        0.0693
      6  C3        -0.2140    0.8370   -1.0170 C.3     1  UNL1        0.0168
      7  C4         0.4040    0.4270    0.2880 C.ar    1  UNL1       -0.0397
      8  C5         0.0790    1.0170    1.4620 C.ar    1  UNL1       -0.0581
      9  C6         0.6630    0.6090    2.6730 C.ar    1  UNL1       -0.0597
     10  C7         1.5810   -0.4120    2.6350 C.ar    1  UNL1       -0.0393
     11  C8         1.9280   -1.0280    1.4450 C.ar    1  UNL1        0.0484
     12  N3         2.8850   -2.0750    1.4230 N.pl3   1  UNL1       -0.2135
     13  S1         4.1220   -2.0640    0.2330 S.O2    1  UNL1        0.1056
     14  O2         3.5560   -2.0700   -1.1510 O.2     1  UNL1       -0.1470
     15  O3         4.9630   -3.3030    0.4620 O.2     1  UNL1       -0.1470
     16  C9         5.1240   -0.6310    0.4130 C.ar    1  UNL1        0.2610
     17  C10        4.9940    0.3050    1.3710 C.ar    1  UNL1        0.0041
     18  C11        5.9880    1.2630    1.1470 C.ar    1  UNL1       -0.0219
     19  C12        6.6700    0.8150    0.0250 C.ar    1  UNL1        0.0943
     20  O4         6.1260   -0.2970   -0.3660 O.2     1  UNL1       -0.4449
     21  C13        1.3400   -0.6080    0.2800 C.ar    1  UNL1       -0.0358
     22  C14       -2.6380    0.1880   -0.8390 C.ar    1  UNL1       -0.0158
     23  C15       -3.6710   -0.6970   -1.0770 C.ar    1  UNL1        0.0232
     24  C16       -4.9960   -0.3790   -0.5020 C.3     1  UNL1       -0.0222
     25  C17       -5.3110    1.0440   -0.9040 C.3     1  UNL1       -0.0486
     26  C18       -4.2160    2.0210   -0.7400 C.3     1  UNL1       -0.0487
     27  C19       -2.9770    1.4100   -0.1030 C.3     1  UNL1       -0.0255
     28 H          -1.9227   -2.8094   -2.8165 H       1  UNL1        0.1921
     29 H          -0.5382    1.8547   -0.9525 H       1  UNL1        0.0377
     30 H           0.5109    0.7388   -1.7979 H       1  UNL1        0.0377
     31 H          -0.6126    1.7830    1.4678 H       1  UNL1        0.0620
     32 H           0.4098    1.0629    3.5645 H       1  UNL1        0.0618
     33 H           2.0219   -0.7269    3.5133 H       1  UNL1        0.0636
     34 H           2.8400   -2.8022    2.0851 H       1  UNL1        0.1738
     35 H           4.2930    0.3142    2.1283 H       1  UNL1        0.0670
     36 H           6.1736    2.1167    1.6963 H       1  UNL1        0.0650
     37 H           7.4724    1.2852   -0.4222 H       1  UNL1        0.1030
     38 H           1.5921   -1.0618   -0.6119 H       1  UNL1        0.0639
     39 H          -4.9656   -0.4633    0.5642 H       1  UNL1        0.0315
     40 H          -5.7441   -1.0555   -0.8592 H       1  UNL1        0.0315
     41 H          -6.1375    1.3762   -0.3112 H       1  UNL1        0.0269
     42 H          -5.5112    1.0091   -1.9545 H       1  UNL1        0.0269
     43 H          -4.5611    2.8214   -0.1194 H       1  UNL1        0.0268
     44 H          -3.9420    2.3671   -1.7147 H       1  UNL1        0.0268
     45 H          -2.1632    2.1026   -0.1568 H       1  UNL1        0.0314
     46 H          -3.1648    1.1817    0.9254 H       1  UNL1        0.0314
@<TRIPOS>BOND
     1     1     2    2
     2     2     3   ar
     3     2    23   ar
     4     3     4   ar
     5     4     5   ar
     6     5     6    1
     7     5    22   ar
     8     6     7    1
     9     7     8   ar
    10     7    21   ar
    11     8     9   ar
    12     9    10   ar
    13    10    11   ar
    14    11    12    1
    15    11    21   ar
    16    12    13    1
    17    13    14    2
    18    13    15    2
    19    13    16    1
    20    16    17   ar
    21    16    20   ar
    22    17    18   ar
    23    18    19   ar
    24    19    20   ar
    25    22    23   ar
    26    22    27    1
    27    23    24    1
    28    24    25    1
    29    25    26    1
    30    26    27    1
    31     3    28    1
    32     6    29    1
    33     6    30    1
    34     8    31    1
    35     9    32    1
    36    10    33    1
    37    12    34    1
    38    17    35    1
    39    18    36    1
    40    19    37    1
    41    21    38    1
    42    24    39    1
    43    24    40    1
    44    25    41    1
    45    25    42    1
    46    26    43    1
    47    26    44    1
    48    27    45    1
    49    27    46    1
@<TRIPOS>MOLECULE
../data/bude_mols_rdkit_confs2/molecule_86.pdb
 46 49 0 0 0
SMALL
GASTEIGER

@<TRIPOS>ATOM
      1  O1        -5.3480   -0.3910   -2.4370 O.2     1  UNL1       -0.2661
      2  C1        -4.4570   -0.7030   -1.5960 C.ar    1  UNL1        0.2682
      3  N1        -3.7130   -1.8180   -1.6900 N.ar    1  UNL1       -0.2427
      4  N2        -2.7840   -2.1370   -0.8100 N.ar    1  UNL1       -0.1753
      5  C2        -2.4960   -1.3550    0.2840 C.ar    1  UNL1        0.0693
      6  C3        -1.4330   -1.8030    1.1470 C.3     1  UNL1        0.0168
      7  C4        -0.0980   -1.2740    1.0160 C.ar    1  UNL1       -0.0397
      8  C5         0.4720   -0.4730    1.9670 C.ar    1  UNL1       -0.0581
      9  C6         1.7210    0.0530    1.8770 C.ar    1  UNL1       -0.0597
     10  C7         2.4810   -0.2440    0.7330 C.ar    1  UNL1       -0.0393
     11  C8         1.9750   -1.0350   -0.2520 C.ar    1  UNL1        0.0484
     12  N3         2.6870   -1.4150   -1.4120 N.pl3   1  UNL1       -0.2135
     13  S1         4.3590   -1.6340   -1.5360 S.O2    1  UNL1        0.1056
     14  O2         4.8200   -2.6320   -0.4680 O.2     1  UNL1       -0.1470
     15  O3         4.7250   -2.2980   -2.8640 O.2     1  UNL1       -0.1470
     16  C9         5.3200   -0.2160   -1.2980 C.ar    1  UNL1        0.2610
     17  C10        4.9630    1.1010   -1.1880 C.ar    1  UNL1        0.0041
     18  C11        6.0980    1.8620   -1.0160 C.ar    1  UNL1       -0.0219
     19  C12        7.1280    0.9520   -1.0280 C.ar    1  UNL1        0.0943
     20  O4         6.6370   -0.2250   -1.1920 O.2     1  UNL1       -0.4449
     21  C13        0.6660   -1.5460   -0.0860 C.ar    1  UNL1       -0.0358
     22  C14       -3.2500   -0.2300    0.3780 C.ar    1  UNL1       -0.0158
     23  C15       -4.2320    0.1180   -0.5450 C.ar    1  UNL1        0.0232
     24  C16       -4.9600    1.3870   -0.2890 C.3     1  UNL1       -0.0222
     25  C17       -3.9120    2.4510   -0.0580 C.3     1  UNL1       -0.0486
     26  C18       -2.9890    2.1310    1.0770 C.3     1  UNL1       -0.0487
     27  C19       -3.0680    0.6750    1.5130 C.3     1  UNL1       -0.0255
     28 H          -3.8684   -2.4241   -2.4501 H       1  UNL1        0.1921
     29 H          -1.3557   -2.8614    1.0104 H       1  UNL1        0.0377
     30 H          -1.7380   -1.4380    2.1055 H       1  UNL1        0.0377
     31 H          -0.0837   -0.2538    2.8085 H       1  UNL1        0.0620
     32 H           2.1004    0.6527    2.6262 H       1  UNL1        0.0618
     33 H           3.4334    0.1420    0.6387 H       1  UNL1        0.0636
     34 H           2.1576   -1.5671   -2.2280 H       1  UNL1        0.1738
     35 H           3.9982    1.4652   -1.2276 H       1  UNL1        0.0670
     36 H           6.1610    2.8859   -0.9034 H       1  UNL1        0.0650
     37 H           8.1298    1.1763   -0.9228 H       1  UNL1        0.1030
     38 H           0.2717   -2.1480   -0.8257 H       1  UNL1        0.0639
     39 H          -5.5812    1.2874    0.5765 H       1  UNL1        0.0315
     40 H          -5.5909    1.6416   -1.1148 H       1  UNL1        0.0315
     41 H          -4.4068    3.3753    0.1559 H       1  UNL1        0.0269
     42 H          -3.3172    2.5104   -0.9454 H       1  UNL1        0.0269
     43 H          -3.2451    2.7512    1.9104 H       1  UNL1        0.0268
     44 H          -1.9900    2.3108    0.7386 H       1  UNL1        0.0268
     45 H          -2.1611    0.4165    2.0185 H       1  UNL1        0.0314
     46 H          -3.9153    0.5695    2.1578 H       1  UNL1        0.0314
@<TRIPOS>BOND
     1     1     2    2
     2     2     3   ar
     3     2    23   ar
     4     3     4   ar
     5     4     5   ar
     6     5     6    1
     7     5    22   ar
     8     6     7    1
     9     7     8   ar
    10     7    21   ar
    11     8     9   ar
    12     9    10   ar
    13    10    11   ar
    14    11    12    1
    15    11    21   ar
    16    12    13    1
    17    13    14    2
    18    13    15    2
    19    13    16    1
    20    16    17   ar
    21    16    20   ar
    22    17    18   ar
    23    18    19   ar
    24    19    20   ar
    25    22    23   ar
    26    22    27    1
    27    23    24    1
    28    24    25    1
    29    25    26    1
    30    26    27    1
    31     3    28    1
    32     6    29    1
    33     6    30    1
    34     8    31    1
    35     9    32    1
    36    10    33    1
    37    12    34    1
    38    17    35    1
    39    18    36    1
    40    19    37    1
    41    21    38    1
    42    24    39    1
    43    24    40    1
    44    25    41    1
    45    25    42    1
    46    26    43    1
    47    26    44    1
    48    27    45    1
    49    27    46    1
@<TRIPOS>MOLECULE
../data/bude_mols_rdkit_confs2/molecule_86.pdb
 46 49 0 0 0
SMALL
GASTEIGER

@<TRIPOS>ATOM
      1  O1        -5.8100   -0.4600   -1.5780 O.2     1  UNL1       -0.2661
      2  C1        -4.5920   -0.7370   -1.4480 C.ar    1  UNL1        0.2682
      3  N1        -3.8910   -1.3160   -2.4170 N.ar    1  UNL1       -0.2427
      4  N2        -2.6230   -1.5740   -2.2080 N.ar    1  UNL1       -0.1753
      5  C2        -1.9610   -1.2880   -1.0520 C.ar    1  UNL1        0.0693
      6  C3        -0.5490   -1.6470   -1.0130 C.3     1  UNL1        0.0168
      7  C4         0.2920   -0.4610   -1.2740 C.ar    1  UNL1       -0.0397
      8  C5         0.3610   -0.0600   -2.6090 C.ar    1  UNL1       -0.0581
      9  C6         1.1510    1.0240   -2.9120 C.ar    1  UNL1       -0.0597
     10  C7         1.8560    1.7020   -1.9390 C.ar    1  UNL1       -0.0393
     11  C8         1.7960    1.3110   -0.5990 C.ar    1  UNL1        0.0484
     12  N3         2.5060    1.9830    0.4080 N.pl3   1  UNL1       -0.2135
     13  S1         3.4170    1.2080    1.6440 S.O2    1  UNL1        0.1056
     14  O2         2.5280    0.2650    2.3770 O.2     1  UNL1       -0.1470
     15  O3         3.9920    2.2600    2.5630 O.2     1  UNL1       -0.1470
     16  C9         4.7010    0.2750    0.9110 C.ar    1  UNL1        0.2610
     17  C10        4.9670    0.1620   -0.4340 C.ar    1  UNL1        0.0041
     18  C11        6.0770   -0.6770   -0.5800 C.ar    1  UNL1       -0.0219
     19  C12        6.4180   -1.0240    0.7210 C.ar    1  UNL1        0.0943
     20  O4         5.5940   -0.4500    1.5480 O.2     1  UNL1       -0.4449
     21  C13        1.0040    0.2260   -0.3090 C.ar    1  UNL1       -0.0358
     22  C14       -2.6560   -0.6880   -0.0280 C.ar    1  UNL1       -0.0158
     23  C15       -3.9830   -0.4080   -0.2190 C.ar    1  UNL1        0.0232
     24  C16       -4.8040    0.2140    0.8380 C.3     1  UNL1       -0.0222
     25  C17       -3.9330    0.8820    1.8540 C.3     1  UNL1       -0.0486
     26  C18       -2.9190   -0.1330    2.3560 C.3     1  UNL1       -0.0487
     27  C19       -1.9020   -0.3970    1.2190 C.3     1  UNL1       -0.0255
     28 H          -4.3155   -1.5466   -3.2748 H       1  UNL1        0.1921
     29 H          -0.3533   -2.3889   -1.7588 H       1  UNL1        0.0377
     30 H          -0.3155   -2.0308   -0.0419 H       1  UNL1        0.0377
     31 H          -0.1632   -0.5601   -3.3440 H       1  UNL1        0.0620
     32 H           1.2183    1.3385   -3.8926 H       1  UNL1        0.0618
     33 H           2.4376    2.5118   -2.2055 H       1  UNL1        0.0636
     34 H           2.4808    2.9672    0.4068 H       1  UNL1        0.1738
     35 H           4.4419    0.6149   -1.1983 H       1  UNL1        0.0670
     36 H           6.5377   -0.9712   -1.4553 H       1  UNL1        0.0650
     37 H           7.2014   -1.6399    0.9892 H       1  UNL1        0.1030
     38 H           0.9381   -0.0893    0.6714 H       1  UNL1        0.0639
     39 H          -5.3900   -0.5413    1.3188 H       1  UNL1        0.0315
     40 H          -5.4419    0.9487    0.3929 H       1  UNL1        0.0315
     41 H          -4.5310    1.2299    2.6703 H       1  UNL1        0.0269
     42 H          -3.4305    1.7186    1.4153 H       1  UNL1        0.0269
     43 H          -3.4160   -1.0439    2.6172 H       1  UNL1        0.0268
     44 H          -2.4171    0.2414    3.2237 H       1  UNL1        0.0268
     45 H          -1.2875    0.4672    1.0762 H       1  UNL1        0.0314
     46 H          -1.2760   -1.2271    1.4717 H       1  UNL1        0.0314
@<TRIPOS>BOND
     1     1     2    2
     2     2     3   ar
     3     2    23   ar
     4     3     4   ar
     5     4     5   ar
     6     5     6    1
     7     5    22   ar
     8     6     7    1
     9     7     8   ar
    10     7    21   ar
    11     8     9   ar
    12     9    10   ar
    13    10    11   ar
    14    11    12    1
    15    11    21   ar
    16    12    13    1
    17    13    14    2
    18    13    15    2
    19    13    16    1
    20    16    17   ar
    21    16    20   ar
    22    17    18   ar
    23    18    19   ar
    24    19    20   ar
    25    22    23   ar
    26    22    27    1
    27    23    24    1
    28    24    25    1
    29    25    26    1
    30    26    27    1
    31     3    28    1
    32     6    29    1
    33     6    30    1
    34     8    31    1
    35     9    32    1
    36    10    33    1
    37    12    34    1
    38    17    35    1
    39    18    36    1
    40    19    37    1
    41    21    38    1
    42    24    39    1
    43    24    40    1
    44    25    41    1
    45    25    42    1
    46    26    43    1
    47    26    44    1
    48    27    45    1
    49    27    46    1
@<TRIPOS>MOLECULE
../data/bude_mols_rdkit_confs2/molecule_86.pdb
 46 49 0 0 0
SMALL
GASTEIGER

@<TRIPOS>ATOM
      1  O1        -4.4490   -2.6610    2.0710 O.2     1  UNL1       -0.2661
      2  C1        -3.7180   -1.9550    1.3350 C.ar    1  UNL1        0.2682
      3  N1        -2.3860   -2.1220    1.3380 N.ar    1  UNL1       -0.2427
      4  N2        -1.6130   -1.3690    0.5540 N.ar    1  UNL1       -0.1753
      5  C2        -2.1180   -0.4160   -0.2710 C.ar    1  UNL1        0.0693
      6  C3        -1.2550    0.4130   -1.1360 C.3     1  UNL1        0.0168
      7  C4         0.1720    0.0080   -0.9230 C.ar    1  UNL1       -0.0397
      8  C5         0.6670   -1.0020   -1.7130 C.ar    1  UNL1       -0.0581
      9  C6         1.9720   -1.3870   -1.5320 C.ar    1  UNL1       -0.0597
     10  C7         2.8210   -0.8030   -0.5840 C.ar    1  UNL1       -0.0393
     11  C8         2.3100    0.1980    0.1900 C.ar    1  UNL1        0.0484
     12  N3         3.0680    0.8200    1.2000 N.pl3   1  UNL1       -0.2135
     13  S1         4.5140    1.6770    0.9890 S.O2    1  UNL1        0.1056
     14  O2         4.9160    2.3070    2.3060 O.2     1  UNL1       -0.1470
     15  O3         4.2530    2.8070   -0.0050 O.2     1  UNL1       -0.1470
     16  C9         5.8310    0.7410    0.3350 C.ar    1  UNL1        0.2610
     17  C10        7.0210    0.4410    1.0290 C.ar    1  UNL1        0.0041
     18  C11        7.8300   -0.3090    0.2160 C.ar    1  UNL1       -0.0219
     19  C12        7.1130   -0.4480   -0.9530 C.ar    1  UNL1        0.0943
     20  O4         5.9660    0.1750   -0.8370 O.2     1  UNL1       -0.4449
     21  C13        0.9730    0.5940    0.0060 C.ar    1  UNL1       -0.0358
     22  C14       -3.4760   -0.2020   -0.3150 C.ar    1  UNL1       -0.0158
     23  C15       -4.2660   -0.9840    0.4980 C.ar    1  UNL1        0.0232
     24  C16       -5.7290   -0.7360    0.4320 C.3     1  UNL1       -0.0222
     25  C17       -5.9460    0.7510    0.5870 C.3     1  UNL1       -0.0486
     26  C18       -5.0580    1.5980   -0.2470 C.3     1  UNL1       -0.0487
     27  C19       -4.1570    0.8010   -1.1660 C.3     1  UNL1       -0.0255
     28 H          -1.9783   -2.8026    1.9209 H       1  UNL1        0.1921
     29 H          -1.3776    1.4454   -0.8830 H       1  UNL1        0.0377
     30 H          -1.5243    0.2713   -2.1618 H       1  UNL1        0.0377
     31 H           0.0735   -1.4586   -2.4231 H       1  UNL1        0.0620
     32 H           2.3462   -2.1448   -2.1243 H       1  UNL1        0.0618
     33 H           3.7976   -1.1181   -0.4746 H       1  UNL1        0.0636
     34 H           2.7238    0.7501    2.1197 H       1  UNL1        0.1738
     35 H           7.2460    0.7376    1.9915 H       1  UNL1        0.0670
     36 H           8.7665   -0.6855    0.4309 H       1  UNL1        0.0650
     37 H           7.4301   -0.9626   -1.7894 H       1  UNL1        0.1030
     38 H           0.5891    1.3510    0.5930 H       1  UNL1        0.0639
     39 H          -6.2244   -1.2616    1.2215 H       1  UNL1        0.0315
     40 H          -6.1274   -1.0795   -0.4998 H       1  UNL1        0.0315
     41 H          -5.7826    1.0064    1.6131 H       1  UNL1        0.0269
     42 H          -6.9454    0.9462    0.2583 H       1  UNL1        0.0269
     43 H          -4.4446    2.1879    0.4016 H       1  UNL1        0.0268
     44 H          -5.6877    2.2013   -0.8670 H       1  UNL1        0.0268
     45 H          -4.7369    0.3132   -1.9214 H       1  UNL1        0.0314
     46 H          -3.4507    1.4335   -1.6619 H       1  UNL1        0.0314
@<TRIPOS>BOND
     1     1     2    2
     2     2     3   ar
     3     2    23   ar
     4     3     4   ar
     5     4     5   ar
     6     5     6    1
     7     5    22   ar
     8     6     7    1
     9     7     8   ar
    10     7    21   ar
    11     8     9   ar
    12     9    10   ar
    13    10    11   ar
    14    11    12    1
    15    11    21   ar
    16    12    13    1
    17    13    14    2
    18    13    15    2
    19    13    16    1
    20    16    17   ar
    21    16    20   ar
    22    17    18   ar
    23    18    19   ar
    24    19    20   ar
    25    22    23   ar
    26    22    27    1
    27    23    24    1
    28    24    25    1
    29    25    26    1
    30    26    27    1
    31     3    28    1
    32     6    29    1
    33     6    30    1
    34     8    31    1
    35     9    32    1
    36    10    33    1
    37    12    34    1
    38    17    35    1
    39    18    36    1
    40    19    37    1
    41    21    38    1
    42    24    39    1
    43    24    40    1
    44    25    41    1
    45    25    42    1
    46    26    43    1
    47    26    44    1
    48    27    45    1
    49    27    46    1
@<TRIPOS>MOLECULE
../data/bude_mols_rdkit_confs2/molecule_86.pdb
 46 49 0 0 0
SMALL
GASTEIGER

@<TRIPOS>ATOM
      1  O1        -4.1860    2.8670    1.9130 O.2     1  UNL1       -0.2661
      2  C1        -3.4840    1.9770    1.3850 C.ar    1  UNL1        0.2682
      3  N1        -2.1710    2.1490    1.1510 N.ar    1  UNL1       -0.2427
      4  N2        -1.5020    1.1650    0.5920 N.ar    1  UNL1       -0.1753
      5  C2        -2.0360   -0.0180    0.2310 C.ar    1  UNL1        0.0693
      6  C3        -1.2090   -1.0460   -0.3820 C.3     1  UNL1        0.0168
      7  C4         0.1840   -0.5480   -0.5010 C.ar    1  UNL1       -0.0397
      8  C5         0.6290    0.1340   -1.6220 C.ar    1  UNL1       -0.0581
      9  C6         1.9200    0.5940   -1.7280 C.ar    1  UNL1       -0.0597
     10  C7         2.8260    0.3920   -0.7170 C.ar    1  UNL1       -0.0393
     11  C8         2.4130   -0.2830    0.4090 C.ar    1  UNL1        0.0484
     12  N3         3.2820   -0.5260    1.4920 N.pl3   1  UNL1       -0.2135
     13  S1         4.8640   -1.1150    1.2820 S.O2    1  UNL1        0.1056
     14  O2         4.8290   -2.4610    0.6130 O.2     1  UNL1       -0.1470
     15  O3         5.5040   -1.2920    2.6430 O.2     1  UNL1       -0.1470
     16  C9         5.8850   -0.0510    0.3550 C.ar    1  UNL1        0.2610
     17  C10        6.5240   -0.3430   -0.8250 C.ar    1  UNL1        0.0041
     18  C11        7.2140    0.8160   -1.1750 C.ar    1  UNL1       -0.0219
     19  C12        6.9530    1.7340   -0.1950 C.ar    1  UNL1        0.0943
     20  O4         6.1680    1.1820    0.6830 O.2     1  UNL1       -0.4449
     21  C13        1.0970   -0.7460    0.5070 C.ar    1  UNL1       -0.0358
     22  C14       -3.3780   -0.2160    0.4610 C.ar    1  UNL1       -0.0158
     23  C15       -4.1060    0.7740    1.0360 C.ar    1  UNL1        0.0232
     24  C16       -5.5420    0.5410    1.2750 C.3     1  UNL1       -0.0222
     25  C17       -6.1970   -0.2070    0.1650 C.3     1  UNL1       -0.0486
     26  C18       -5.3220   -1.1190   -0.6170 C.3     1  UNL1       -0.0487
     27  C19       -4.0190   -1.4750    0.0930 C.3     1  UNL1       -0.0255
     28 H          -1.7218    2.9911    1.3924 H       1  UNL1        0.1921
     29 H          -1.5899   -1.2784   -1.3545 H       1  UNL1        0.0377
     30 H          -1.2242   -1.9274    0.2245 H       1  UNL1        0.0377
     31 H          -0.0280    0.3015   -2.4001 H       1  UNL1        0.0620
     32 H           2.2121    1.0983   -2.5797 H       1  UNL1        0.0618
     33 H           3.7947    0.7383   -0.7993 H       1  UNL1        0.0636
     34 H           2.9608   -0.3479    2.4054 H       1  UNL1        0.1738
     35 H           6.4985   -1.2346   -1.3441 H       1  UNL1        0.0670
     36 H           7.8055    0.9545   -2.0093 H       1  UNL1        0.0650
     37 H           7.3166    2.6991   -0.1585 H       1  UNL1        0.1030
     38 H           0.8037   -1.2496    1.3587 H       1  UNL1        0.0639
     39 H          -6.0287    1.4877    1.3835 H       1  UNL1        0.0315
     40 H          -5.6295   -0.0534    2.1604 H       1  UNL1        0.0315
     41 H          -6.6100    0.5103   -0.5131 H       1  UNL1        0.0269
     42 H          -6.9227   -0.8382    0.6339 H       1  UNL1        0.0269
     43 H          -5.0823   -0.6440   -1.5453 H       1  UNL1        0.0268
     44 H          -5.8635   -2.0316   -0.7541 H       1  UNL1        0.0268
     45 H          -4.2239   -2.0534    0.9696 H       1  UNL1        0.0314
     46 H          -3.3838   -2.0566   -0.5419 H       1  UNL1        0.0314
@<TRIPOS>BOND
     1     1     2    2
     2     2     3   ar
     3     2    23   ar
     4     3     4   ar
     5     4     5   ar
     6     5     6    1
     7     5    22   ar
     8     6     7    1
     9     7     8   ar
    10     7    21   ar
    11     8     9   ar
    12     9    10   ar
    13    10    11   ar
    14    11    12    1
    15    11    21   ar
    16    12    13    1
    17    13    14    2
    18    13    15    2
    19    13    16    1
    20    16    17   ar
    21    16    20   ar
    22    17    18   ar
    23    18    19   ar
    24    19    20   ar
    25    22    23   ar
    26    22    27    1
    27    23    24    1
    28    24    25    1
    29    25    26    1
    30    26    27    1
    31     3    28    1
    32     6    29    1
    33     6    30    1
    34     8    31    1
    35     9    32    1
    36    10    33    1
    37    12    34    1
    38    17    35    1
    39    18    36    1
    40    19    37    1
    41    21    38    1
    42    24    39    1
    43    24    40    1
    44    25    41    1
    45    25    42    1
    46    26    43    1
    47    26    44    1
    48    27    45    1
    49    27    46    1
@<TRIPOS>MOLECULE
../data/bude_mols_rdkit_confs2/molecule_86.pdb
 46 49 0 0 0
SMALL
GASTEIGER

@<TRIPOS>ATOM
      1  O1        -5.5500   -1.4900   -2.0200 O.2     1  UNL1       -0.2661
      2  C1        -4.3300   -1.4980   -1.6370 C.ar    1  UNL1        0.2682
      3  N1        -3.4310   -2.1170   -2.4190 N.ar    1  UNL1       -0.2427
      4  N2        -2.1880   -2.1230   -2.0260 N.ar    1  UNL1       -0.1753
      5  C2        -1.7350   -1.5460   -0.8790 C.ar    1  UNL1        0.0693
      6  C3        -0.3070   -1.6290   -0.6240 C.3     1  UNL1        0.0168
      7  C4         0.5020   -0.4560   -0.9620 C.ar    1  UNL1       -0.0397
      8  C5         0.7350   -0.0470   -2.2620 C.ar    1  UNL1       -0.0581
      9  C6         1.5260    1.0510   -2.5180 C.ar    1  UNL1       -0.0597
     10  C7         2.1070    1.7730   -1.4900 C.ar    1  UNL1       -0.0393
     11  C8         1.8890    1.3820   -0.1820 C.ar    1  UNL1        0.0484
     12  N3         2.4840    2.1360    0.8600 N.pl3   1  UNL1       -0.2135
     13  S1         3.2450    1.3480    2.1830 S.O2    1  UNL1        0.1056
     14  O2         3.7250    2.3730    3.1960 O.2     1  UNL1       -0.1470
     15  O3         2.3010    0.4130    2.9150 O.2     1  UNL1       -0.1470
     16  C9         4.5720    0.3970    1.6130 C.ar    1  UNL1        0.2610
     17  C10        4.9940    0.2890    0.3120 C.ar    1  UNL1        0.0041
     18  C11        6.0880   -0.5800    0.3370 C.ar    1  UNL1       -0.0219
     19  C12        6.2380   -0.9280    1.6590 C.ar    1  UNL1        0.0943
     20  O4         5.3350   -0.3430    2.3950 O.2     1  UNL1       -0.4449
     21  C13        1.0900    0.2760    0.0420 C.ar    1  UNL1       -0.0358
     22  C14       -2.6060   -0.9210   -0.0740 C.ar    1  UNL1       -0.0158
     23  C15       -3.9580   -0.8860   -0.4540 C.ar    1  UNL1        0.0232
     24  C16       -4.9820   -0.2180    0.3680 C.3     1  UNL1       -0.0222
     25  C17       -4.4870    0.8430    1.2930 C.3     1  UNL1       -0.0486
     26  C18       -3.0090    1.1090    1.1300 C.3     1  UNL1       -0.0487
     27  C19       -2.3100   -0.2580    1.2040 C.3     1  UNL1       -0.0255
     28 H          -3.7012   -2.5514   -3.2602 H       1  UNL1        0.1921
     29 H           0.0732   -2.4555   -1.1873 H       1  UNL1        0.0377
     30 H          -0.2215   -1.7266    0.4381 H       1  UNL1        0.0377
     31 H           0.3131   -0.5683   -3.0464 H       1  UNL1        0.0620
     32 H           1.6886    1.3409   -3.4950 H       1  UNL1        0.0618
     33 H           2.6965    2.5942   -1.6976 H       1  UNL1        0.0636
     34 H           2.4610    3.1196    0.8253 H       1  UNL1        0.1738
     35 H           4.5873    0.7538   -0.5148 H       1  UNL1        0.0670
     36 H           6.6596   -0.8929   -0.4633 H       1  UNL1        0.0650
     37 H           6.9657   -1.5650    2.0191 H       1  UNL1        0.1030
     38 H           0.9258   -0.0164    1.0180 H       1  UNL1        0.0639
     39 H          -5.4678   -0.9666    0.9583 H       1  UNL1        0.0315
     40 H          -5.6280    0.2805   -0.3241 H       1  UNL1        0.0315
     41 H          -4.6708    0.5330    2.3005 H       1  UNL1        0.0269
     42 H          -5.0080    1.7477    1.0585 H       1  UNL1        0.0269
     43 H          -2.6591    1.7463    1.9151 H       1  UNL1        0.0268
     44 H          -2.8037    1.5993    0.2014 H       1  UNL1        0.0268
     45 H          -1.2542   -0.1320    1.3240 H       1  UNL1        0.0314
     46 H          -2.6524   -0.8339    2.0383 H       1  UNL1        0.0314
@<TRIPOS>BOND
     1     1     2    2
     2     2     3   ar
     3     2    23   ar
     4     3     4   ar
     5     4     5   ar
     6     5     6    1
     7     5    22   ar
     8     6     7    1
     9     7     8   ar
    10     7    21   ar
    11     8     9   ar
    12     9    10   ar
    13    10    11   ar
    14    11    12    1
    15    11    21   ar
    16    12    13    1
    17    13    14    2
    18    13    15    2
    19    13    16    1
    20    16    17   ar
    21    16    20   ar
    22    17    18   ar
    23    18    19   ar
    24    19    20   ar
    25    22    23   ar
    26    22    27    1
    27    23    24    1
    28    24    25    1
    29    25    26    1
    30    26    27    1
    31     3    28    1
    32     6    29    1
    33     6    30    1
    34     8    31    1
    35     9    32    1
    36    10    33    1
    37    12    34    1
    38    17    35    1
    39    18    36    1
    40    19    37    1
    41    21    38    1
    42    24    39    1
    43    24    40    1
    44    25    41    1
    45    25    42    1
    46    26    43    1
    47    26    44    1
    48    27    45    1
    49    27    46    1
@<TRIPOS>MOLECULE
../data/bude_mols_rdkit_confs2/molecule_86.pdb
 46 49 0 0 0
SMALL
GASTEIGER

@<TRIPOS>ATOM
      1  O1        -5.1320   -1.7040    2.7630 O.2     1  UNL1       -0.2661
      2  C1        -4.2430   -1.6600    1.8710 C.ar    1  UNL1        0.2682
      3  N1        -3.4790   -2.7270    1.5540 N.ar    1  UNL1       -0.2427
      4  N2        -2.5730   -2.6390    0.6290 N.ar    1  UNL1       -0.1753
      5  C2        -2.3030   -1.5110   -0.0940 C.ar    1  UNL1        0.0693
      6  C3        -1.2350   -1.5700   -1.0750 C.3     1  UNL1        0.0168
      7  C4         0.0780   -1.0360   -0.5620 C.ar    1  UNL1       -0.0397
      8  C5         0.1430   -0.2360    0.5560 C.ar    1  UNL1       -0.0581
      9  C6         1.3720    0.2460    0.9820 C.ar    1  UNL1       -0.0597
     10  C7         2.5330   -0.0660    0.2990 C.ar    1  UNL1       -0.0393
     11  C8         2.5010   -0.8630   -0.8220 C.ar    1  UNL1        0.0484
     12  N3         3.6350   -1.2430   -1.5780 N.pl3   1  UNL1       -0.2135
     13  S1         4.7940   -0.0970   -2.0790 S.O2    1  UNL1        0.1056
     14  O2         5.8580   -0.8120   -2.8810 O.2     1  UNL1       -0.1470
     15  O3         4.1700    0.9810   -2.9390 O.2     1  UNL1       -0.1470
     16  C9         5.5260    0.6430   -0.6780 C.ar    1  UNL1        0.2610
     17  C10        5.5150    2.0080   -0.3920 C.ar    1  UNL1        0.0041
     18  C11        6.1910    2.2050    0.7910 C.ar    1  UNL1       -0.0219
     19  C12        6.5930    0.9500    1.1880 C.ar    1  UNL1        0.0943
     20  O4         6.1830    0.0730    0.3030 O.2     1  UNL1       -0.4449
     21  C13        1.2550   -1.3210   -1.2110 C.ar    1  UNL1       -0.0358
     22  C14       -3.0520   -0.4030    0.1910 C.ar    1  UNL1       -0.0158
     23  C15       -4.0100   -0.5070    1.1740 C.ar    1  UNL1        0.0232
     24  C16       -4.7960    0.7440    1.4270 C.3     1  UNL1       -0.0222
     25  C17       -5.3130    1.1770    0.0890 C.3     1  UNL1       -0.0486
     26  C18       -4.1800    1.5460   -0.8070 C.3     1  UNL1       -0.0487
     27  C19       -2.8760    0.8430   -0.5190 C.3     1  UNL1       -0.0255
     28 H          -3.6103   -3.5794    2.0288 H       1  UNL1        0.1921
     29 H          -1.5257   -0.9935   -1.9282 H       1  UNL1        0.0377
     30 H          -1.0842   -2.6014   -1.3167 H       1  UNL1        0.0377
     31 H          -0.7168    0.0037    1.0739 H       1  UNL1        0.0620
     32 H           1.4204    0.8458    1.8204 H       1  UNL1        0.0618
     33 H           3.4360    0.3041    0.6347 H       1  UNL1        0.0636
     34 H           3.7575   -2.1894   -1.8200 H       1  UNL1        0.1738
     35 H           5.0759    2.7434   -0.9677 H       1  UNL1        0.0670
     36 H           6.3599    3.1004    1.2755 H       1  UNL1        0.0650
     37 H           7.1296    0.7342    2.0427 H       1  UNL1        0.1030
     38 H           1.2059   -1.9203   -2.0497 H       1  UNL1        0.0639
     39 H          -4.1670    1.5011    1.8465 H       1  UNL1        0.0315
     40 H          -5.5921    0.5759    2.1219 H       1  UNL1        0.0315
     41 H          -5.9540    2.0244    0.2153 H       1  UNL1        0.0269
     42 H          -5.8578    0.3689   -0.3525 H       1  UNL1        0.0269
     43 H          -4.0152    2.5993   -0.7153 H       1  UNL1        0.0268
     44 H          -4.4694    1.2420   -1.7912 H       1  UNL1        0.0268
     45 H          -2.3855    0.6399   -1.4480 H       1  UNL1        0.0314
     46 H          -2.2952    1.4886    0.1061 H       1  UNL1        0.0314
@<TRIPOS>BOND
     1     1     2    2
     2     2     3   ar
     3     2    23   ar
     4     3     4   ar
     5     4     5   ar
     6     5     6    1
     7     5    22   ar
     8     6     7    1
     9     7     8   ar
    10     7    21   ar
    11     8     9   ar
    12     9    10   ar
    13    10    11   ar
    14    11    12    1
    15    11    21   ar
    16    12    13    1
    17    13    14    2
    18    13    15    2
    19    13    16    1
    20    16    17   ar
    21    16    20   ar
    22    17    18   ar
    23    18    19   ar
    24    19    20   ar
    25    22    23   ar
    26    22    27    1
    27    23    24    1
    28    24    25    1
    29    25    26    1
    30    26    27    1
    31     3    28    1
    32     6    29    1
    33     6    30    1
    34     8    31    1
    35     9    32    1
    36    10    33    1
    37    12    34    1
    38    17    35    1
    39    18    36    1
    40    19    37    1
    41    21    38    1
    42    24    39    1
    43    24    40    1
    44    25    41    1
    45    25    42    1
    46    26    43    1
    47    26    44    1
    48    27    45    1
    49    27    46    1
@<TRIPOS>MOLECULE
../data/bude_mols_rdkit_confs2/molecule_86.pdb
 46 49 0 0 0
SMALL
GASTEIGER

@<TRIPOS>ATOM
      1  O1        -5.8170    1.6580   -1.1140 O.2     1  UNL1       -0.2661
      2  C1        -4.6310    1.2860   -1.2970 C.ar    1  UNL1        0.2682
      3  N1        -3.8650    1.9400   -2.1870 N.ar    1  UNL1       -0.2427
      4  N2        -2.6350    1.5820   -2.4000 N.ar    1  UNL1       -0.1753
      5  C2        -2.0590    0.5630   -1.7620 C.ar    1  UNL1        0.0693
      6  C3        -0.6280    0.2630   -2.0720 C.3     1  UNL1        0.0168
      7  C4         0.2970    0.8150   -1.0610 C.ar    1  UNL1       -0.0397
      8  C5         0.5710    2.1800   -1.1320 C.ar    1  UNL1       -0.0581
      9  C6         1.4400    2.7180   -0.2180 C.ar    1  UNL1       -0.0597
     10  C7         2.0480    1.9480    0.7670 C.ar    1  UNL1       -0.0393
     11  C8         1.7720    0.6010    0.8320 C.ar    1  UNL1        0.0484
     12  N3         2.3710   -0.2090    1.8190 N.pl3   1  UNL1       -0.2135
     13  S1         4.0440   -0.1250    2.2180 S.O2    1  UNL1        0.1056
     14  O2         4.4480    1.2620    2.6260 O.2     1  UNL1       -0.1470
     15  O3         4.3940   -1.0560    3.3380 O.2     1  UNL1       -0.1470
     16  C9         4.9920   -0.5450    0.7950 C.ar    1  UNL1        0.2610
     17  C10        5.9260    0.2640    0.1550 C.ar    1  UNL1        0.0041
     18  C11        6.4380   -0.4400   -0.9120 C.ar    1  UNL1       -0.0219
     19  C12        5.8000   -1.6600   -0.8900 C.ar    1  UNL1        0.0943
     20  O4         4.9700   -1.6670    0.1230 O.2     1  UNL1       -0.4449
     21  C13        0.8830    0.0560   -0.1070 C.ar    1  UNL1       -0.0358
     22  C14       -2.7730   -0.1530   -0.8420 C.ar    1  UNL1       -0.0158
     23  C15       -4.0940    0.2410   -0.6210 C.ar    1  UNL1        0.0232
     24  C16       -4.9400   -0.4990    0.3710 C.3     1  UNL1       -0.0222
     25  C17       -4.6170   -1.9780    0.2930 C.3     1  UNL1       -0.0486
     26  C18       -3.1710   -2.3000    0.4000 C.3     1  UNL1       -0.0487
     27  C19       -2.2080   -1.2880   -0.1160 C.3     1  UNL1       -0.0255
     28 H          -4.2418    2.7014   -2.6846 H       1  UNL1        0.1921
     29 H          -0.3872    0.6861   -3.0249 H       1  UNL1        0.0377
     30 H          -0.5114   -0.8006   -2.0734 H       1  UNL1        0.0377
     31 H           0.1307    2.7709   -1.8545 H       1  UNL1        0.0620
     32 H           1.6496    3.7275   -0.2627 H       1  UNL1        0.0618
     33 H           2.6983    2.3810    1.4412 H       1  UNL1        0.0636
     34 H           1.8055   -0.8533    2.3031 H       1  UNL1        0.1738
     35 H           6.1888    1.2229    0.4314 H       1  UNL1        0.0670
     36 H           7.1505   -0.1203   -1.5867 H       1  UNL1        0.0650
     37 H           5.9498   -2.4341   -1.5558 H       1  UNL1        0.1030
     38 H           0.6701   -0.9531   -0.0686 H       1  UNL1        0.0639
     39 H          -5.9745   -0.3458    0.1445 H       1  UNL1        0.0315
     40 H          -4.7380   -0.1375    1.3576 H       1  UNL1        0.0315
     41 H          -4.9732   -2.3487   -0.6454 H       1  UNL1        0.0269
     42 H          -5.0938   -2.4379    1.1333 H       1  UNL1        0.0269
     43 H          -3.0029   -3.2086   -0.1395 H       1  UNL1        0.0268
     44 H          -2.9776   -2.3537    1.4510 H       1  UNL1        0.0268
     45 H          -1.6663   -0.8999    0.7212 H       1  UNL1        0.0314
     46 H          -1.6098   -1.8101   -0.8332 H       1  UNL1        0.0314
@<TRIPOS>BOND
     1     1     2    2
     2     2     3   ar
     3     2    23   ar
     4     3     4   ar
     5     4     5   ar
     6     5     6    1
     7     5    22   ar
     8     6     7    1
     9     7     8   ar
    10     7    21   ar
    11     8     9   ar
    12     9    10   ar
    13    10    11   ar
    14    11    12    1
    15    11    21   ar
    16    12    13    1
    17    13    14    2
    18    13    15    2
    19    13    16    1
    20    16    17   ar
    21    16    20   ar
    22    17    18   ar
    23    18    19   ar
    24    19    20   ar
    25    22    23   ar
    26    22    27    1
    27    23    24    1
    28    24    25    1
    29    25    26    1
    30    26    27    1
    31     3    28    1
    32     6    29    1
    33     6    30    1
    34     8    31    1
    35     9    32    1
    36    10    33    1
    37    12    34    1
    38    17    35    1
    39    18    36    1
    40    19    37    1
    41    21    38    1
    42    24    39    1
    43    24    40    1
    44    25    41    1
    45    25    42    1
    46    26    43    1
    47    26    44    1
    48    27    45    1
    49    27    46    1
@<TRIPOS>MOLECULE
../data/bude_mols_rdkit_confs2/molecule_86.pdb
 46 49 0 0 0
SMALL
GASTEIGER

@<TRIPOS>ATOM
      1  O1        -4.9440    0.9750   -2.9380 O.2     1  UNL1       -0.2661
      2  C1        -4.1200    1.1180   -2.0210 C.ar    1  UNL1        0.2682
      3  N1        -3.2800    2.1930   -1.9750 N.ar    1  UNL1       -0.2427
      4  N2        -2.4100    2.3290   -0.9930 N.ar    1  UNL1       -0.1753
      5  C2        -2.2750    1.4380    0.0300 C.ar    1  UNL1        0.0693
      6  C3        -1.2490    1.7340    1.0340 C.3     1  UNL1        0.0168
      7  C4         0.0150    1.0150    0.9140 C.ar    1  UNL1       -0.0397
      8  C5         0.2720   -0.0780    1.6930 C.ar    1  UNL1       -0.0581
      9  C6         1.4410   -0.7830    1.6130 C.ar    1  UNL1       -0.0597
     10  C7         2.4020   -0.3510    0.6860 C.ar    1  UNL1       -0.0393
     11  C8         2.2090    0.7310   -0.1210 C.ar    1  UNL1        0.0484
     12  N3         3.1510    1.2200   -1.0390 N.pl3   1  UNL1       -0.2135
     13  S1         4.8300    1.3120   -0.9550 S.O2    1  UNL1        0.1056
     14  O2         5.3540    2.0510   -2.1710 O.2     1  UNL1       -0.1470
     15  O3         5.2720    2.1960    0.2260 O.2     1  UNL1       -0.1470
     16  C9         5.7030   -0.1740   -0.8740 C.ar    1  UNL1        0.2610
     17  C10        5.2650   -1.4430   -1.0530 C.ar    1  UNL1        0.0041
     18  C11        6.3340   -2.2890   -0.8960 C.ar    1  UNL1       -0.0219
     19  C12        7.4130   -1.4600   -0.6180 C.ar    1  UNL1        0.0943
     20  O4         7.0110   -0.2320   -0.6130 O.2     1  UNL1       -0.4449
     21  C13        0.9700    1.4100    0.0220 C.ar    1  UNL1       -0.0358
     22  C14       -3.1140    0.3480   -0.0010 C.ar    1  UNL1       -0.0158
     23  C15       -4.0440    0.1790   -1.0280 C.ar    1  UNL1        0.0232
     24  C16       -4.9280   -1.0100   -0.9880 C.3     1  UNL1       -0.0222
     25  C17       -5.3860   -1.0590    0.4850 C.3     1  UNL1       -0.0486
     26  C18       -4.1870   -1.5530    1.2510 C.3     1  UNL1       -0.0487
     27  C19       -3.0110   -0.6350    1.0690 C.3     1  UNL1       -0.0255
     28 H          -3.3241    2.8752   -2.6835 H       1  UNL1        0.1921
     29 H          -1.6610    1.5064    1.9949 H       1  UNL1        0.0377
     30 H          -1.0006    2.7641    0.8855 H       1  UNL1        0.0377
     31 H          -0.4452   -0.3838    2.3691 H       1  UNL1        0.0620
     32 H           1.6107   -1.6047    2.2138 H       1  UNL1        0.0618
     33 H           3.2894   -0.8726    0.6122 H       1  UNL1        0.0636
     34 H           2.7642    1.5687   -1.8745 H       1  UNL1        0.1738
     35 H           4.2961   -1.7247   -1.2697 H       1  UNL1        0.0670
     36 H           6.3358   -3.3184   -0.9688 H       1  UNL1        0.0650
     37 H           8.3804   -1.7742   -0.4435 H       1  UNL1        0.1030
     38 H           0.7844    2.2338   -0.5712 H       1  UNL1        0.0639
     39 H          -4.3907   -1.8967   -1.2525 H       1  UNL1        0.0315
     40 H          -5.7427   -0.9508   -1.6792 H       1  UNL1        0.0315
     41 H          -6.2094   -1.7325    0.6004 H       1  UNL1        0.0269
     42 H          -5.7196   -0.1040    0.8337 H       1  UNL1        0.0269
     43 H          -3.9257   -2.5291    0.8991 H       1  UNL1        0.0268
     44 H          -4.4371   -1.5818    2.2910 H       1  UNL1        0.0268
     45 H          -2.8685   -0.1032    1.9865 H       1  UNL1        0.0314
     46 H          -2.1956   -1.2703    0.7927 H       1  UNL1        0.0314
@<TRIPOS>BOND
     1     1     2    2
     2     2     3   ar
     3     2    23   ar
     4     3     4   ar
     5     4     5   ar
     6     5     6    1
     7     5    22   ar
     8     6     7    1
     9     7     8   ar
    10     7    21   ar
    11     8     9   ar
    12     9    10   ar
    13    10    11   ar
    14    11    12    1
    15    11    21   ar
    16    12    13    1
    17    13    14    2
    18    13    15    2
    19    13    16    1
    20    16    17   ar
    21    16    20   ar
    22    17    18   ar
    23    18    19   ar
    24    19    20   ar
    25    22    23   ar
    26    22    27    1
    27    23    24    1
    28    24    25    1
    29    25    26    1
    30    26    27    1
    31     3    28    1
    32     6    29    1
    33     6    30    1
    34     8    31    1
    35     9    32    1
    36    10    33    1
    37    12    34    1
    38    17    35    1
    39    18    36    1
    40    19    37    1
    41    21    38    1
    42    24    39    1
    43    24    40    1
    44    25    41    1
    45    25    42    1
    46    26    43    1
    47    26    44    1
    48    27    45    1
    49    27    46    1
@<TRIPOS>MOLECULE
../data/bude_mols_rdkit_confs2/molecule_86.pdb
 46 49 0 0 0
SMALL
GASTEIGER

@<TRIPOS>ATOM
      1  O1         3.9930   -0.6420   -3.1320 O.2     1  UNL1       -0.2661
      2  C1         3.3630   -0.4180   -2.0480 C.ar    1  UNL1        0.2682
      3  N1         2.0270   -0.5430   -1.9690 N.ar    1  UNL1       -0.2427
      4  N2         1.3430   -0.3130   -0.8390 N.ar    1  UNL1       -0.1753
      5  C2         1.9790    0.0590    0.2840 C.ar    1  UNL1        0.0693
      6  C3         1.2030    0.3010    1.4940 C.3     1  UNL1        0.0168
      7  C4        -0.2450    0.0860    1.2850 C.ar    1  UNL1       -0.0397
      8  C5        -0.8130   -1.1570    1.4920 C.ar    1  UNL1       -0.0581
      9  C6        -2.1430   -1.4020    1.3120 C.ar    1  UNL1       -0.0597
     10  C7        -2.9780   -0.3970    0.9090 C.ar    1  UNL1       -0.0393
     11  C8        -2.4620    0.8550    0.6900 C.ar    1  UNL1        0.0484
     12  N3        -3.3180    1.9340    0.2690 N.pl3   1  UNL1       -0.2135
     13  S1        -4.4720    1.7360   -0.9870 S.O2    1  UNL1        0.1056
     14  O2        -3.7690    1.3620   -2.2800 O.2     1  UNL1       -0.1470
     15  O3        -5.1010    3.0920   -1.2380 O.2     1  UNL1       -0.1470
     16  C9        -5.6820    0.5410   -0.6370 C.ar    1  UNL1        0.2610
     17  C10       -5.9410   -0.6130   -1.3870 C.ar    1  UNL1        0.0041
     18  C11       -6.9710   -1.2700   -0.7590 C.ar    1  UNL1       -0.0219
     19  C12       -7.3110   -0.5140    0.3420 C.ar    1  UNL1        0.0943
     20  O4        -6.5290    0.5240    0.3600 O.2     1  UNL1       -0.4449
     21  C13       -1.1060    1.0790    0.8800 C.ar    1  UNL1       -0.0358
     22  C14        3.3300    0.1950    0.2390 C.ar    1  UNL1       -0.0158
     23  C15        4.0630   -0.0410   -0.9330 C.ar    1  UNL1        0.0232
     24  C16        5.5360    0.1340   -0.8810 C.3     1  UNL1       -0.0222
     25  C17        6.0210   -0.6400    0.3310 C.3     1  UNL1       -0.0486
     26  C18        5.2480   -0.3950    1.5740 C.3     1  UNL1       -0.0487
     27  C19        4.1110    0.5970    1.4120 C.3     1  UNL1       -0.0255
     28 H           1.5301   -0.8147   -2.7743 H       1  UNL1        0.1921
     29 H           1.3591    1.3125    1.8062 H       1  UNL1        0.0377
     30 H           1.5327   -0.3933    2.2384 H       1  UNL1        0.0377
     31 H          -0.2047   -1.9333    1.7959 H       1  UNL1        0.0620
     32 H          -2.5197   -2.3479    1.4804 H       1  UNL1        0.0618
     33 H          -3.9846   -0.5783    0.7712 H       1  UNL1        0.0636
     34 H          -3.2394    2.8089    0.7134 H       1  UNL1        0.1738
     35 H          -5.4525   -0.9120   -2.2455 H       1  UNL1        0.0670
     36 H          -7.4061   -2.1579   -1.0545 H       1  UNL1        0.0650
     37 H          -8.0513   -0.7322    1.0271 H       1  UNL1        0.1030
     38 H          -0.7298    2.0251    0.7113 H       1  UNL1        0.0639
     39 H           5.7815    1.1705   -0.7798 H       1  UNL1        0.0315
     40 H           5.9992   -0.2220   -1.7774 H       1  UNL1        0.0315
     41 H           7.0399   -0.3691    0.5135 H       1  UNL1        0.0269
     42 H           5.8961   -1.6766    0.0971 H       1  UNL1        0.0269
     43 H           5.9187   -0.0187    2.3180 H       1  UNL1        0.0268
     44 H           4.8052   -1.3289    1.8507 H       1  UNL1        0.0268
     45 H           3.4907    0.5854    2.2838 H       1  UNL1        0.0314
     46 H           4.4945    1.5877    1.2843 H       1  UNL1        0.0314
@<TRIPOS>BOND
     1     1     2    2
     2     2     3   ar
     3     2    23   ar
     4     3     4   ar
     5     4     5   ar
     6     5     6    1
     7     5    22   ar
     8     6     7    1
     9     7     8   ar
    10     7    21   ar
    11     8     9   ar
    12     9    10   ar
    13    10    11   ar
    14    11    12    1
    15    11    21   ar
    16    12    13    1
    17    13    14    2
    18    13    15    2
    19    13    16    1
    20    16    17   ar
    21    16    20   ar
    22    17    18   ar
    23    18    19   ar
    24    19    20   ar
    25    22    23   ar
    26    22    27    1
    27    23    24    1
    28    24    25    1
    29    25    26    1
    30    26    27    1
    31     3    28    1
    32     6    29    1
    33     6    30    1
    34     8    31    1
    35     9    32    1
    36    10    33    1
    37    12    34    1
    38    17    35    1
    39    18    36    1
    40    19    37    1
    41    21    38    1
    42    24    39    1
    43    24    40    1
    44    25    41    1
    45    25    42    1
    46    26    43    1
    47    26    44    1
    48    27    45    1
    49    27    46    1
@<TRIPOS>MOLECULE
../data/bude_mols_rdkit_confs2/molecule_86.pdb
 46 49 0 0 0
SMALL
GASTEIGER

@<TRIPOS>ATOM
      1  O1        -4.3150   -2.9570    0.9710 O.2     1  UNL1       -0.2661
      2  C1        -3.5890   -2.0300    0.5310 C.ar    1  UNL1        0.2682
      3  N1        -2.2610   -2.1570    0.3430 N.ar    1  UNL1       -0.2427
      4  N2        -1.5120   -1.1680   -0.1210 N.ar    1  UNL1       -0.1753
      5  C2        -2.0320    0.0320   -0.4360 C.ar    1  UNL1        0.0693
      6  C3        -1.1810    1.1550   -0.9630 C.3     1  UNL1        0.0168
      7  C4         0.2090    0.6500   -1.0350 C.ar    1  UNL1       -0.0397
      8  C5         0.7070    0.0330   -2.1600 C.ar    1  UNL1       -0.0581
      9  C6         2.0070   -0.4260   -2.1940 C.ar    1  UNL1       -0.0597
     10  C7         2.8090   -0.2490   -1.0530 C.ar    1  UNL1       -0.0393
     11  C8         2.3560    0.3580    0.0820 C.ar    1  UNL1        0.0484
     12  N3         3.0610    0.5600    1.2940 N.pl3   1  UNL1       -0.2135
     13  S1         4.2260   -0.4360    2.0010 S.O2    1  UNL1        0.1056
     14  O2         4.6360    0.1430    3.3610 O.2     1  UNL1       -0.1470
     15  O3         3.6420   -1.8320    2.2920 O.2     1  UNL1       -0.1470
     16  C9         5.6880   -0.6090    1.0710 C.ar    1  UNL1        0.2610
     17  C10        6.1330    0.0390   -0.0560 C.ar    1  UNL1        0.0041
     18  C11        7.3650   -0.4700   -0.3870 C.ar    1  UNL1       -0.0219
     19  C12        7.6290   -1.4260    0.5680 C.ar    1  UNL1        0.0943
     20  O4         6.6400   -1.4840    1.3970 O.2     1  UNL1       -0.4449
     21  C13        1.0120    0.8070    0.0540 C.ar    1  UNL1       -0.0358
     22  C14       -3.3900    0.1870   -0.2510 C.ar    1  UNL1       -0.0158
     23  C15       -4.1680   -0.8410    0.2310 C.ar    1  UNL1        0.0232
     24  C16       -5.6250   -0.5580    0.3900 C.3     1  UNL1       -0.0222
     25  C17       -5.7570    0.7430    1.1200 C.3     1  UNL1       -0.0486
     26  C18       -5.0420    1.8840    0.4850 C.3     1  UNL1       -0.0487
     27  C19       -4.0430    1.4650   -0.5680 C.3     1  UNL1       -0.0255
     28 H          -1.8316   -3.0163    0.5584 H       1  UNL1        0.1921
     29 H          -1.2325    1.9956   -0.3030 H       1  UNL1        0.0377
     30 H          -1.5219    1.4717   -1.9265 H       1  UNL1        0.0377
     31 H           0.1012   -0.0874   -2.9868 H       1  UNL1        0.0620
     32 H           2.3821   -0.8884   -3.0369 H       1  UNL1        0.0618
     33 H           3.7818   -0.5928   -1.0748 H       1  UNL1        0.0636
     34 H           2.8442    1.3849    1.7857 H       1  UNL1        0.1738
     35 H           5.6283    0.7807   -0.5661 H       1  UNL1        0.0670
     36 H           7.9641   -0.1950   -1.1810 H       1  UNL1        0.0650
     37 H           8.4822   -2.0048    0.6142 H       1  UNL1        0.1030
     38 H           0.6267    1.2710    0.8914 H       1  UNL1        0.0639
     39 H          -6.0894   -1.3407    0.9527 H       1  UNL1        0.0315
     40 H          -6.1034   -0.5028   -0.5655 H       1  UNL1        0.0315
     41 H          -5.3671    0.6127    2.1079 H       1  UNL1        0.0269
     42 H          -6.7974    0.9929    1.1097 H       1  UNL1        0.0269
     43 H          -4.5216    2.4235    1.2486 H       1  UNL1        0.0268
     44 H          -5.7813    2.4818   -0.0059 H       1  UNL1        0.0268
     45 H          -4.5524    1.3667   -1.5038 H       1  UNL1        0.0314
     46 H          -3.2821    2.2161   -0.6098 H       1  UNL1        0.0314
@<TRIPOS>BOND
     1     1     2    2
     2     2     3   ar
     3     2    23   ar
     4     3     4   ar
     5     4     5   ar
     6     5     6    1
     7     5    22   ar
     8     6     7    1
     9     7     8   ar
    10     7    21   ar
    11     8     9   ar
    12     9    10   ar
    13    10    11   ar
    14    11    12    1
    15    11    21   ar
    16    12    13    1
    17    13    14    2
    18    13    15    2
    19    13    16    1
    20    16    17   ar
    21    16    20   ar
    22    17    18   ar
    23    18    19   ar
    24    19    20   ar
    25    22    23   ar
    26    22    27    1
    27    23    24    1
    28    24    25    1
    29    25    26    1
    30    26    27    1
    31     3    28    1
    32     6    29    1
    33     6    30    1
    34     8    31    1
    35     9    32    1
    36    10    33    1
    37    12    34    1
    38    17    35    1
    39    18    36    1
    40    19    37    1
    41    21    38    1
    42    24    39    1
    43    24    40    1
    44    25    41    1
    45    25    42    1
    46    26    43    1
    47    26    44    1
    48    27    45    1
    49    27    46    1
@<TRIPOS>MOLECULE
../data/bude_mols_rdkit_confs2/molecule_86.pdb
 46 49 0 0 0
SMALL
GASTEIGER

@<TRIPOS>ATOM
      1  O1        -6.2020    1.4080   -0.1490 O.2     1  UNL1       -0.2661
      2  C1        -5.0160    1.3680    0.2750 C.ar    1  UNL1        0.2682
      3  N1        -4.3540    2.4740    0.6650 N.ar    1  UNL1       -0.2427
      4  N2        -3.1130    2.4230    1.1070 N.ar    1  UNL1       -0.1753
      5  C2        -2.4030    1.2570    1.2060 C.ar    1  UNL1        0.0693
      6  C3        -1.0480    1.3200    1.7090 C.3     1  UNL1        0.0168
      7  C4         0.0550    1.2690    0.7680 C.ar    1  UNL1       -0.0397
      8  C5         0.3670    2.3470   -0.0110 C.ar    1  UNL1       -0.0581
      9  C6         1.4300    2.2890   -0.8710 C.ar    1  UNL1       -0.0597
     10  C7         2.2320    1.1420   -0.9890 C.ar    1  UNL1       -0.0393
     11  C8         1.9320    0.0510   -0.2120 C.ar    1  UNL1        0.0484
     12  N3         2.6240   -1.1570   -0.2670 N.pl3   1  UNL1       -0.2135
     13  S1         4.2680   -1.3680    0.0490 S.O2    1  UNL1        0.1056
     14  O2         4.6620   -2.8380    0.0320 O.2     1  UNL1       -0.1470
     15  O3         4.6070   -0.9380    1.4910 O.2     1  UNL1       -0.1470
     16  C9         5.3340   -0.5020   -1.0110 C.ar    1  UNL1        0.2610
     17  C10        6.2190   -1.1110   -1.9090 C.ar    1  UNL1        0.0041
     18  C11        6.8930   -0.1180   -2.5740 C.ar    1  UNL1       -0.0219
     19  C12        6.4020    1.0610   -2.0650 C.ar    1  UNL1        0.0943
     20  O4         5.5120    0.7700   -1.1730 O.2     1  UNL1       -0.4449
     21  C13        0.8410    0.1580    0.6460 C.ar    1  UNL1       -0.0358
     22  C14       -3.0510    0.1110    0.8150 C.ar    1  UNL1       -0.0158
     23  C15       -4.3760    0.1750    0.3450 C.ar    1  UNL1        0.0232
     24  C16       -5.0800   -1.0840   -0.0430 C.3     1  UNL1       -0.0222
     25  C17       -4.5860   -2.1220    0.9910 C.3     1  UNL1       -0.0486
     26  C18       -3.1570   -2.3730    0.6190 C.3     1  UNL1       -0.0487
     27  C19       -2.3190   -1.1630    0.8970 C.3     1  UNL1       -0.0255
     28 H          -4.8098    3.3454    0.6187 H       1  UNL1        0.1921
     29 H          -0.9247    0.4969    2.3815 H       1  UNL1        0.0377
     30 H          -0.9775    2.2995    2.1339 H       1  UNL1        0.0377
     31 H          -0.2002    3.2071    0.0492 H       1  UNL1        0.0620
     32 H           1.6492    3.1139   -1.4510 H       1  UNL1        0.0618
     33 H           3.0285    1.1200   -1.6448 H       1  UNL1        0.0636
     34 H           2.1079   -1.9588   -0.5120 H       1  UNL1        0.1738
     35 H           6.3424   -2.1264   -2.0463 H       1  UNL1        0.0670
     36 H           7.6155   -0.2320   -3.3020 H       1  UNL1        0.0650
     37 H           6.6925    2.0108   -2.3453 H       1  UNL1        0.1030
     38 H           0.6094   -0.6597    1.2314 H       1  UNL1        0.0639
     39 H          -4.8122   -1.3791   -1.0360 H       1  UNL1        0.0315
     40 H          -6.1447   -0.9774   -0.0434 H       1  UNL1        0.0315
     41 H          -5.1580   -3.0238    0.9242 H       1  UNL1        0.0269
     42 H          -4.6887   -1.7736    1.9975 H       1  UNL1        0.0269
     43 H          -3.1011   -2.6074   -0.4235 H       1  UNL1        0.0268
     44 H          -2.7872   -3.1900    1.2027 H       1  UNL1        0.0268
     45 H          -1.9147   -1.2545    1.8834 H       1  UNL1        0.0314
     46 H          -1.5636   -1.1322    0.1398 H       1  UNL1        0.0314
@<TRIPOS>BOND
     1     1     2    2
     2     2     3   ar
     3     2    23   ar
     4     3     4   ar
     5     4     5   ar
     6     5     6    1
     7     5    22   ar
     8     6     7    1
     9     7     8   ar
    10     7    21   ar
    11     8     9   ar
    12     9    10   ar
    13    10    11   ar
    14    11    12    1
    15    11    21   ar
    16    12    13    1
    17    13    14    2
    18    13    15    2
    19    13    16    1
    20    16    17   ar
    21    16    20   ar
    22    17    18   ar
    23    18    19   ar
    24    19    20   ar
    25    22    23   ar
    26    22    27    1
    27    23    24    1
    28    24    25    1
    29    25    26    1
    30    26    27    1
    31     3    28    1
    32     6    29    1
    33     6    30    1
    34     8    31    1
    35     9    32    1
    36    10    33    1
    37    12    34    1
    38    17    35    1
    39    18    36    1
    40    19    37    1
    41    21    38    1
    42    24    39    1
    43    24    40    1
    44    25    41    1
    45    25    42    1
    46    26    43    1
    47    26    44    1
    48    27    45    1
    49    27    46    1
@<TRIPOS>MOLECULE
../data/bude_mols_rdkit_confs2/molecule_86.pdb
 46 49 0 0 0
SMALL
GASTEIGER

@<TRIPOS>ATOM
      1  O1        -4.7080   -0.9980   -3.3190 O.2     1  UNL1       -0.2661
      2  C1        -3.9420   -1.1870   -2.3080 C.ar    1  UNL1        0.2682
      3  N1        -3.0120   -2.1570   -2.3270 N.ar    1  UNL1       -0.2427
      4  N2        -2.2010   -2.3900   -1.3150 N.ar    1  UNL1       -0.1753
      5  C2        -2.2440   -1.6530   -0.1530 C.ar    1  UNL1        0.0693
      6  C3        -1.2830   -1.9180    0.9140 C.3     1  UNL1        0.0168
      7  C4        -0.0570   -1.0880    0.8850 C.ar    1  UNL1       -0.0397
      8  C5         0.2570   -0.0760    1.7400 C.ar    1  UNL1       -0.0581
      9  C6         1.4180    0.6750    1.6460 C.ar    1  UNL1       -0.0597
     10  C7         2.3170    0.4170    0.6610 C.ar    1  UNL1       -0.0393
     11  C8         2.0520   -0.5930   -0.2300 C.ar    1  UNL1        0.0484
     12  N3         2.9520   -0.9190   -1.2810 N.pl3   1  UNL1       -0.2135
     13  S1         4.6410   -1.0680   -1.1280 S.O2    1  UNL1        0.1056
     14  O2         5.0110   -2.1960   -0.1700 O.2     1  UNL1       -0.1470
     15  O3         5.2120   -1.5030   -2.4630 O.2     1  UNL1       -0.1470
     16  C9         5.4110    0.4140   -0.6230 C.ar    1  UNL1        0.2610
     17  C10        6.1600    0.6550    0.4990 C.ar    1  UNL1        0.0041
     18  C11        6.5380    1.9680    0.4390 C.ar    1  UNL1       -0.0219
     19  C12        5.9980    2.4960   -0.7390 C.ar    1  UNL1        0.0943
     20  O4         5.3330    1.5190   -1.3350 O.2     1  UNL1       -0.4449
     21  C13        0.8880   -1.3390   -0.1290 C.ar    1  UNL1       -0.0358
     22  C14       -3.1800   -0.6720   -0.1230 C.ar    1  UNL1       -0.0158
     23  C15       -4.0480   -0.4090   -1.1840 C.ar    1  UNL1        0.0232
     24  C16       -5.0680    0.6580   -1.1420 C.3     1  UNL1       -0.0222
     25  C17       -4.7380    1.7980   -0.2340 C.3     1  UNL1       -0.0486
     26  C18       -3.4400    1.6140    0.5330 C.3     1  UNL1       -0.0487
     27  C19       -3.3760    0.1770    1.0720 C.3     1  UNL1       -0.0255
     28 H          -2.9332   -2.7180   -3.1322 H       1  UNL1        0.1921
     29 H          -0.9885   -2.9444    0.8456 H       1  UNL1        0.0377
     30 H          -1.7827   -1.6741    1.8282 H       1  UNL1        0.0377
     31 H          -0.4059    0.1439    2.4998 H       1  UNL1        0.0620
     32 H           1.5996    1.4308    2.3249 H       1  UNL1        0.0618
     33 H           3.1844    0.9708    0.5838 H       1  UNL1        0.0636
     34 H           2.5656   -1.0716   -2.1735 H       1  UNL1        0.1738
     35 H           6.3930   -0.0213    1.2429 H       1  UNL1        0.0670
     36 H           7.1126    2.4736    1.1313 H       1  UNL1        0.0650
     37 H           6.0992    3.4651   -1.0792 H       1  UNL1        0.1030
     38 H           0.7102   -2.0934   -0.8104 H       1  UNL1        0.0639
     39 H          -5.9900    0.2257   -0.8135 H       1  UNL1        0.0315
     40 H          -5.1236    1.0637   -2.1305 H       1  UNL1        0.0315
     41 H          -5.5344    1.9086    0.4720 H       1  UNL1        0.0269
     42 H          -4.6155    2.6632   -0.8515 H       1  UNL1        0.0269
     43 H          -3.4047    2.3050    1.3492 H       1  UNL1        0.0268
     44 H          -2.6085    1.7937   -0.1160 H       1  UNL1        0.0268
     45 H          -2.5562    0.0661    1.7506 H       1  UNL1        0.0314
     46 H          -4.2599   -0.0889    1.6132 H       1  UNL1        0.0314
@<TRIPOS>BOND
     1     1     2    2
     2     2     3   ar
     3     2    23   ar
     4     3     4   ar
     5     4     5   ar
     6     5     6    1
     7     5    22   ar
     8     6     7    1
     9     7     8   ar
    10     7    21   ar
    11     8     9   ar
    12     9    10   ar
    13    10    11   ar
    14    11    12    1
    15    11    21   ar
    16    12    13    1
    17    13    14    2
    18    13    15    2
    19    13    16    1
    20    16    17   ar
    21    16    20   ar
    22    17    18   ar
    23    18    19   ar
    24    19    20   ar
    25    22    23   ar
    26    22    27    1
    27    23    24    1
    28    24    25    1
    29    25    26    1
    30    26    27    1
    31     3    28    1
    32     6    29    1
    33     6    30    1
    34     8    31    1
    35     9    32    1
    36    10    33    1
    37    12    34    1
    38    17    35    1
    39    18    36    1
    40    19    37    1
    41    21    38    1
    42    24    39    1
    43    24    40    1
    44    25    41    1
    45    25    42    1
    46    26    43    1
    47    26    44    1
    48    27    45    1
    49    27    46    1
@<TRIPOS>MOLECULE
../data/bude_mols_rdkit_confs2/molecule_86.pdb
 46 49 0 0 0
SMALL
GASTEIGER

@<TRIPOS>ATOM
      1  O1        -5.7090   -2.0110   -0.7690 O.2     1  UNL1       -0.2661
      2  C1        -4.6290   -1.6030   -0.2440 C.ar    1  UNL1        0.2682
      3  N1        -4.1960   -2.0920    0.9280 N.ar    1  UNL1       -0.2427
      4  N2        -3.0710   -1.6610    1.4660 N.ar    1  UNL1       -0.1753
      5  C2        -2.2850   -0.7240    0.9060 C.ar    1  UNL1        0.0693
      6  C3        -1.0490   -0.3320    1.5910 C.3     1  UNL1        0.0168
      7  C4         0.1710   -0.9690    1.0000 C.ar    1  UNL1       -0.0397
      8  C5         0.0450   -1.6910   -0.1630 C.ar    1  UNL1       -0.0581
      9  C6         1.1980   -2.2600   -0.6810 C.ar    1  UNL1       -0.0597
     10  C7         2.4200   -2.1110   -0.0590 C.ar    1  UNL1       -0.0393
     11  C8         2.5520   -1.3850    1.1130 C.ar    1  UNL1        0.0484
     12  N3         3.8390   -1.2560    1.7200 N.pl3   1  UNL1       -0.2135
     13  S1         4.4020    0.2620    2.2960 S.O2    1  UNL1        0.1056
     14  O2         3.4240    0.7580    3.3220 O.2     1  UNL1       -0.1470
     15  O3         5.7770    0.1100    2.8740 O.2     1  UNL1       -0.1470
     16  C9         4.4820    1.3330    0.9200 C.ar    1  UNL1        0.2610
     17  C10        5.5970    1.9570    0.4540 C.ar    1  UNL1        0.0041
     18  C11        5.2450    2.7120   -0.6440 C.ar    1  UNL1       -0.0219
     19  C12        3.8950    2.5100   -0.8030 C.ar    1  UNL1        0.0943
     20  O4         3.4850    1.6800    0.1540 O.2     1  UNL1       -0.4449
     21  C13        1.4060   -0.8200    1.6260 C.ar    1  UNL1       -0.0358
     22  C14       -2.7000   -0.2040   -0.2920 C.ar    1  UNL1       -0.0158
     23  C15       -3.8680   -0.6370   -0.8730 C.ar    1  UNL1        0.0232
     24  C16       -4.3290   -0.0800   -2.1760 C.3     1  UNL1       -0.0222
     25  C17       -3.8020    1.2730   -2.4910 C.3     1  UNL1       -0.0486
     26  C18       -2.8990    1.8740   -1.4630 C.3     1  UNL1       -0.0487
     27  C19       -1.9190    0.8220   -0.9670 C.3     1  UNL1       -0.0255
     28 H          -4.7243   -2.7809    1.3923 H       1  UNL1        0.1921
     29 H          -1.1215   -0.6211    2.6186 H       1  UNL1        0.0377
     30 H          -0.9433    0.7272    1.4824 H       1  UNL1        0.0377
     31 H          -0.8682   -1.8045   -0.6301 H       1  UNL1        0.0620
     32 H           1.1407   -2.8085   -1.5533 H       1  UNL1        0.0618
     33 H           3.2551   -2.5506   -0.4765 H       1  UNL1        0.0636
     34 H           4.4133   -2.0506    1.8098 H       1  UNL1        0.1738
     35 H           6.5450    1.8785    0.8543 H       1  UNL1        0.0670
     36 H           5.8627    3.3024   -1.2227 H       1  UNL1        0.0650
     37 H           3.3021    2.9288   -1.5366 H       1  UNL1        0.1030
     38 H           1.4638   -0.2712    2.4981 H       1  UNL1        0.0639
     39 H          -5.3975   -0.0259   -2.1566 H       1  UNL1        0.0315
     40 H          -3.9559   -0.7353   -2.9351 H       1  UNL1        0.0315
     41 H          -4.6374    1.9294   -2.6184 H       1  UNL1        0.0269
     42 H          -3.2038    1.1548   -3.3703 H       1  UNL1        0.0269
     43 H          -3.4834    2.2319   -0.6412 H       1  UNL1        0.0268
     44 H          -2.3569    2.6875   -1.8982 H       1  UNL1        0.0268
     45 H          -1.3885    0.3959   -1.7928 H       1  UNL1        0.0314
     46 H          -1.2004    1.2536   -0.3020 H       1  UNL1        0.0314
@<TRIPOS>BOND
     1     1     2    2
     2     2     3   ar
     3     2    23   ar
     4     3     4   ar
     5     4     5   ar
     6     5     6    1
     7     5    22   ar
     8     6     7    1
     9     7     8   ar
    10     7    21   ar
    11     8     9   ar
    12     9    10   ar
    13    10    11   ar
    14    11    12    1
    15    11    21   ar
    16    12    13    1
    17    13    14    2
    18    13    15    2
    19    13    16    1
    20    16    17   ar
    21    16    20   ar
    22    17    18   ar
    23    18    19   ar
    24    19    20   ar
    25    22    23   ar
    26    22    27    1
    27    23    24    1
    28    24    25    1
    29    25    26    1
    30    26    27    1
    31     3    28    1
    32     6    29    1
    33     6    30    1
    34     8    31    1
    35     9    32    1
    36    10    33    1
    37    12    34    1
    38    17    35    1
    39    18    36    1
    40    19    37    1
    41    21    38    1
    42    24    39    1
    43    24    40    1
    44    25    41    1
    45    25    42    1
    46    26    43    1
    47    26    44    1
    48    27    45    1
    49    27    46    1
@<TRIPOS>MOLECULE
../data/bude_mols_rdkit_confs2/molecule_86.pdb
 46 49 0 0 0
SMALL
GASTEIGER

@<TRIPOS>ATOM
      1  O1        -4.9230   -1.8790    2.3740 O.2     1  UNL1       -0.2661
      2  C1        -3.9250   -1.1830    2.0230 C.ar    1  UNL1        0.2682
      3  N1        -2.7690   -1.1460    2.7040 N.ar    1  UNL1       -0.2427
      4  N2        -1.7270   -0.4180    2.3350 N.ar    1  UNL1       -0.1753
      5  C2        -1.7480    0.3640    1.2140 C.ar    1  UNL1        0.0693
      6  C3        -0.5440    1.0680    0.8350 C.3     1  UNL1        0.0168
      7  C4         0.3210    0.2460   -0.0520 C.ar    1  UNL1       -0.0397
      8  C5         0.2220    0.2110   -1.4070 C.ar    1  UNL1       -0.0581
      9  C6         1.0680   -0.5690   -2.2090 C.ar    1  UNL1       -0.0597
     10  C7         2.0320   -1.3220   -1.5500 C.ar    1  UNL1       -0.0393
     11  C8         2.1610   -1.3120   -0.1830 C.ar    1  UNL1        0.0484
     12  N3         3.1540   -2.0850    0.4650 N.pl3   1  UNL1       -0.2135
     13  S1         4.7480   -2.0850   -0.1270 S.O2    1  UNL1        0.1056
     14  O2         4.7670   -2.6180   -1.5220 O.2     1  UNL1       -0.1470
     15  O3         5.6230   -3.0060    0.7300 O.2     1  UNL1       -0.1470
     16  C9         5.4740   -0.4990   -0.0930 C.ar    1  UNL1        0.2610
     17  C10        5.9400    0.1550   -1.2050 C.ar    1  UNL1        0.0041
     18  C11        6.4360    1.3620   -0.7980 C.ar    1  UNL1       -0.0219
     19  C12        6.2460    1.3900    0.5820 C.ar    1  UNL1        0.0943
     20  O4         5.6710    0.2610    0.9490 O.2     1  UNL1       -0.4449
     21  C13        1.3140   -0.5330    0.5840 C.ar    1  UNL1       -0.0358
     22  C14       -2.9120    0.3530    0.4940 C.ar    1  UNL1       -0.0158
     23  C15       -4.0000   -0.4140    0.8870 C.ar    1  UNL1        0.0232
     24  C16       -5.2090   -0.3540    0.0210 C.3     1  UNL1       -0.0222
     25  C17       -5.5320    1.1130   -0.1570 C.3     1  UNL1       -0.0486
     26  C18       -4.3880    1.9800   -0.5110 C.3     1  UNL1       -0.0487
     27  C19       -3.1010    1.1920   -0.6860 C.3     1  UNL1       -0.0255
     28 H          -2.6920   -1.6892    3.5214 H       1  UNL1        0.1921
     29 H           0.0044    1.3170    1.7194 H       1  UNL1        0.0377
     30 H          -0.8290    1.9486    0.2981 H       1  UNL1        0.0377
     31 H          -0.5057    0.7819   -1.8647 H       1  UNL1        0.0620
     32 H           0.9789   -0.5829   -3.2371 H       1  UNL1        0.0618
     33 H           2.6728   -1.9087   -2.1069 H       1  UNL1        0.0636
     34 H           2.9222   -2.6217    1.2571 H       1  UNL1        0.1738
     35 H           5.9198   -0.2000   -2.1738 H       1  UNL1        0.0670
     36 H           6.8604    2.0956   -1.3869 H       1  UNL1        0.0650
     37 H           6.5107    2.1640    1.2113 H       1  UNL1        0.1030
     38 H           1.4062   -0.5206    1.6118 H       1  UNL1        0.0639
     39 H          -6.0268   -0.8589    0.4912 H       1  UNL1        0.0315
     40 H          -5.0364   -0.8311   -0.9211 H       1  UNL1        0.0315
     41 H          -5.9460    1.4729    0.7617 H       1  UNL1        0.0269
     42 H          -6.2071    1.1659   -0.9855 H       1  UNL1        0.0269
     43 H          -4.2476    2.6999    0.2681 H       1  UNL1        0.0268
     44 H          -4.6119    2.4533   -1.4441 H       1  UNL1        0.0268
     45 H          -3.1690    0.5777   -1.5594 H       1  UNL1        0.0314
     46 H          -2.2728    1.8599   -0.7995 H       1  UNL1        0.0314
@<TRIPOS>BOND
     1     1     2    2
     2     2     3   ar
     3     2    23   ar
     4     3     4   ar
     5     4     5   ar
     6     5     6    1
     7     5    22   ar
     8     6     7    1
     9     7     8   ar
    10     7    21   ar
    11     8     9   ar
    12     9    10   ar
    13    10    11   ar
    14    11    12    1
    15    11    21   ar
    16    12    13    1
    17    13    14    2
    18    13    15    2
    19    13    16    1
    20    16    17   ar
    21    16    20   ar
    22    17    18   ar
    23    18    19   ar
    24    19    20   ar
    25    22    23   ar
    26    22    27    1
    27    23    24    1
    28    24    25    1
    29    25    26    1
    30    26    27    1
    31     3    28    1
    32     6    29    1
    33     6    30    1
    34     8    31    1
    35     9    32    1
    36    10    33    1
    37    12    34    1
    38    17    35    1
    39    18    36    1
    40    19    37    1
    41    21    38    1
    42    24    39    1
    43    24    40    1
    44    25    41    1
    45    25    42    1
    46    26    43    1
    47    26    44    1
    48    27    45    1
    49    27    46    1
