@<TRIPOS>MOLECULE
../data/bude_mols_rdkit_confs2/molecule_50.pdb
 33 35 0 0 0
SMALL
GASTEIGER

@<TRIPOS>ATOM
      1 O          -4.9940    1.9700    1.0550 O.2     1  UNL1        0.0414
      2 N          -5.5130    0.8970    0.7030 N.pl3   1  UNL1        0.0797
      3 O          -6.8800    0.7960    0.7390 O.co2   1  UNL1       -0.5760
      4 C          -4.7620   -0.2300    0.2650 C.ar    1  UNL1        0.2767
      5 C          -5.3320   -1.4070   -0.1200 C.ar    1  UNL1        0.0158
      6 C          -4.5560   -2.4700   -0.5370 C.ar    1  UNL1       -0.0519
      7 C          -3.1880   -2.3490   -0.5660 C.ar    1  UNL1       -0.0188
      8 C          -2.5570   -1.1530   -0.1770 C.ar    1  UNL1        0.1383
      9 O          -1.2130   -1.1160   -0.2340 O.3     1  UNL1       -0.4234
     10 C          -0.3400   -0.1160    0.0730 C.ar    1  UNL1        0.3239
     11 N          -0.7000    1.0960    0.5200 N.ar    1  UNL1       -0.2030
     12 C           0.1110    2.0920    0.8300 C.ar    1  UNL1        0.0350
     13 C           1.4750    1.8890    0.6860 C.ar    1  UNL1       -0.0173
     14 C           1.8870    0.6620    0.2300 C.ar    1  UNL1        0.0778
     15 C           3.3210    0.4220    0.0700 C.ar    1  UNL1        0.0006
     16 C           4.2600    1.3750    0.3580 C.ar    1  UNL1       -0.0526
     17 C           5.6350    1.1410    0.2020 C.ar    1  UNL1       -0.0611
     18 C           6.0560   -0.0890   -0.2550 C.ar    1  UNL1       -0.0617
     19 C           5.1090   -1.0220   -0.5340 C.ar    1  UNL1       -0.0611
     20 C           3.7710   -0.8220   -0.3930 C.ar    1  UNL1       -0.0526
     21 N           0.9950   -0.2990   -0.0620 N.ar    1  UNL1       -0.1946
     22 C          -3.3620   -0.1320    0.2260 C.ar    1  UNL1        0.0579
     23 H          -6.3591   -1.5049   -0.0994 H       1  UNL1        0.0685
     24 H          -5.0029   -3.3540   -0.8264 H       1  UNL1        0.0621
     25 H          -2.6140   -3.1479   -0.8780 H       1  UNL1        0.0654
     26 H          -0.2595    2.9936    1.1690 H       1  UNL1        0.0832
     27 H           2.1543    2.6320    0.9130 H       1  UNL1        0.0654
     28 H           3.9466    2.2964    0.7013 H       1  UNL1        0.0624
     29 H           6.3206    1.8791    0.4262 H       1  UNL1        0.0618
     30 H           7.0593   -0.2949   -0.3813 H       1  UNL1        0.0618
     31 H           5.4255   -1.9431   -0.8754 H       1  UNL1        0.0618
     32 H           3.1001   -1.5718   -0.6225 H       1  UNL1        0.0624
     33 H          -2.9227    0.7555    0.5164 H       1  UNL1        0.0723
@<TRIPOS>UNITY_ATOM_ATTR
2 1
charge 1
3 1
charge -1
@<TRIPOS>BOND
     1     1     2    2
     2     2     3    1
     3     2     4    1
     4     4     5   ar
     5     4    22   ar
     6     5     6   ar
     7     6     7   ar
     8     7     8   ar
     9     8     9    1
    10     8    22   ar
    11     9    10    1
    12    10    11   ar
    13    10    21   ar
    14    11    12   ar
    15    12    13   ar
    16    13    14   ar
    17    14    15    1
    18    14    21   ar
    19    15    16   ar
    20    15    20   ar
    21    16    17   ar
    22    17    18   ar
    23    18    19   ar
    24    19    20   ar
    25     5    23    1
    26     6    24    1
    27     7    25    1
    28    12    26    1
    29    13    27    1
    30    16    28    1
    31    17    29    1
    32    18    30    1
    33    19    31    1
    34    20    32    1
    35    22    33    1
@<TRIPOS>MOLECULE
../data/bude_mols_rdkit_confs2/molecule_50.pdb
 33 35 0 0 0
SMALL
GASTEIGER

@<TRIPOS>ATOM
      1 O           4.9650   -0.3200    3.0840 O.2     1  UNL1        0.0414
      2 N           5.5100   -0.2970    1.9600 N.pl3   1  UNL1        0.0797
      3 O           6.8770   -0.1070    1.9500 O.co2   1  UNL1       -0.5760
      4 C           4.7500   -0.4560    0.7850 C.ar    1  UNL1        0.2767
      5 C           5.3220   -0.4340   -0.4630 C.ar    1  UNL1        0.0158
      6 C           4.5830   -0.5900   -1.6160 C.ar    1  UNL1       -0.0519
      7 C           3.2240   -0.7750   -1.5360 C.ar    1  UNL1       -0.0188
      8 C           2.6280   -0.8000   -0.2930 C.ar    1  UNL1        0.1383
      9 O           1.2800   -0.9810   -0.1660 O.3     1  UNL1       -0.4234
     10 C           0.3450    0.0490   -0.1450 C.ar    1  UNL1        0.3239
     11 N           0.6750    1.3350   -0.2480 N.ar    1  UNL1       -0.2030
     12 C          -0.2630    2.2940   -0.2230 C.ar    1  UNL1        0.0350
     13 C          -1.6030    1.9490   -0.0870 C.ar    1  UNL1       -0.0173
     14 C          -1.9390    0.6350    0.0180 C.ar    1  UNL1        0.0778
     15 C          -3.3440    0.1900    0.1650 C.ar    1  UNL1        0.0006
     16 C          -4.3800    1.0570    0.2050 C.ar    1  UNL1       -0.0526
     17 C          -5.6830    0.5760    0.3450 C.ar    1  UNL1       -0.0611
     18 C          -5.9180   -0.7840    0.4440 C.ar    1  UNL1       -0.0617
     19 C          -4.8720   -1.6810    0.4060 C.ar    1  UNL1       -0.0611
     20 C          -3.6040   -1.1640    0.2660 C.ar    1  UNL1       -0.0526
     21 N          -0.9490   -0.2750   -0.0150 N.ar    1  UNL1       -0.1946
     22 C           3.3920   -0.6410    0.8670 C.ar    1  UNL1        0.0579
     23 H           6.3417   -0.2957   -0.5405 H       1  UNL1        0.0685
     24 H           5.0491   -0.5679   -2.5365 H       1  UNL1        0.0621
     25 H           2.6591   -0.8932   -2.3915 H       1  UNL1        0.0654
     26 H           0.0097    3.2860   -0.3046 H       1  UNL1        0.0832
     27 H          -2.3321    2.6791   -0.0660 H       1  UNL1        0.0654
     28 H          -4.2083    2.0720    0.1322 H       1  UNL1        0.0624
     29 H          -6.4744    1.2376    0.3748 H       1  UNL1        0.0618
     30 H          -6.8848   -1.1298    0.5472 H       1  UNL1        0.0618
     31 H          -5.0329   -2.6977    0.4794 H       1  UNL1        0.0618
     32 H          -2.8078   -1.8198    0.2349 H       1  UNL1        0.0624
     33 H           2.9323   -0.6628    1.7907 H       1  UNL1        0.0723
@<TRIPOS>UNITY_ATOM_ATTR
2 1
charge 1
3 1
charge -1
@<TRIPOS>BOND
     1     1     2    2
     2     2     3    1
     3     2     4    1
     4     4     5   ar
     5     4    22   ar
     6     5     6   ar
     7     6     7   ar
     8     7     8   ar
     9     8     9    1
    10     8    22   ar
    11     9    10    1
    12    10    11   ar
    13    10    21   ar
    14    11    12   ar
    15    12    13   ar
    16    13    14   ar
    17    14    15    1
    18    14    21   ar
    19    15    16   ar
    20    15    20   ar
    21    16    17   ar
    22    17    18   ar
    23    18    19   ar
    24    19    20   ar
    25     5    23    1
    26     6    24    1
    27     7    25    1
    28    12    26    1
    29    13    27    1
    30    16    28    1
    31    17    29    1
    32    18    30    1
    33    19    31    1
    34    20    32    1
    35    22    33    1
@<TRIPOS>MOLECULE
../data/bude_mols_rdkit_confs2/molecule_50.pdb
 33 35 0 0 0
SMALL
GASTEIGER

@<TRIPOS>ATOM
      1 O           4.9190    2.9640   -1.3780 O.2     1  UNL1        0.0414
      2 N           4.0530    2.5220   -0.6020 N.pl3   1  UNL1        0.0797
      3 O           3.3110    3.4020    0.1390 O.co2   1  UNL1       -0.5760
      4 C           3.8620    1.1350   -0.5080 C.ar    1  UNL1        0.2767
      5 C           4.6130    0.2580   -1.2570 C.ar    1  UNL1        0.0158
      6 C           4.4400   -1.1120   -1.1780 C.ar    1  UNL1       -0.0519
      7 C           3.4820   -1.5800   -0.3170 C.ar    1  UNL1       -0.0188
      8 C           2.7070   -0.7180    0.4540 C.ar    1  UNL1        0.1383
      9 O           1.7650   -1.3030    1.2930 O.3     1  UNL1       -0.4234
     10 C           0.4770   -1.5640    0.8860 C.ar    1  UNL1        0.3239
     11 N           0.1760   -2.7870    0.4270 N.ar    1  UNL1       -0.2030
     12 C          -1.0500   -3.1220    0.0120 C.ar    1  UNL1        0.0350
     13 C          -2.0630   -2.1690    0.0550 C.ar    1  UNL1       -0.0173
     14 C          -1.7850   -0.9180    0.5170 C.ar    1  UNL1        0.0778
     15 C          -2.8090    0.1040    0.5770 C.ar    1  UNL1        0.0006
     16 C          -2.4500    1.3510    1.0560 C.ar    1  UNL1       -0.0526
     17 C          -3.3980    2.3370    1.1230 C.ar    1  UNL1       -0.0611
     18 C          -4.7050    2.1200    0.7260 C.ar    1  UNL1       -0.0617
     19 C          -5.0440    0.8720    0.2530 C.ar    1  UNL1       -0.0611
     20 C          -4.0920   -0.1480    0.1760 C.ar    1  UNL1       -0.0526
     21 N          -0.5140   -0.6680    0.9160 N.ar    1  UNL1       -0.1946
     22 C           2.8940    0.6430    0.3620 C.ar    1  UNL1        0.0579
     23 H           5.3284    0.6348   -1.8983 H       1  UNL1        0.0685
     24 H           5.0108   -1.7574   -1.7460 H       1  UNL1        0.0621
     25 H           3.3312   -2.5979   -0.2381 H       1  UNL1        0.0654
     26 H          -1.2424   -4.0745   -0.3355 H       1  UNL1        0.0832
     27 H          -3.0162   -2.4078   -0.2602 H       1  UNL1        0.0654
     28 H          -1.4809    1.5358    1.3588 H       1  UNL1        0.0624
     29 H          -3.1298    3.2676    1.4795 H       1  UNL1        0.0618
     30 H          -5.4077    2.8736    0.7828 H       1  UNL1        0.0618
     31 H          -6.0136    0.6876   -0.0485 H       1  UNL1        0.0618
     32 H          -4.3541   -1.0808   -0.1794 H       1  UNL1        0.0624
     33 H           2.3242    1.2891    0.9303 H       1  UNL1        0.0723
@<TRIPOS>UNITY_ATOM_ATTR
2 1
charge 1
3 1
charge -1
@<TRIPOS>BOND
     1     1     2    2
     2     2     3    1
     3     2     4    1
     4     4     5   ar
     5     4    22   ar
     6     5     6   ar
     7     6     7   ar
     8     7     8   ar
     9     8     9    1
    10     8    22   ar
    11     9    10    1
    12    10    11   ar
    13    10    21   ar
    14    11    12   ar
    15    12    13   ar
    16    13    14   ar
    17    14    15    1
    18    14    21   ar
    19    15    16   ar
    20    15    20   ar
    21    16    17   ar
    22    17    18   ar
    23    18    19   ar
    24    19    20   ar
    25     5    23    1
    26     6    24    1
    27     7    25    1
    28    12    26    1
    29    13    27    1
    30    16    28    1
    31    17    29    1
    32    18    30    1
    33    19    31    1
    34    20    32    1
    35    22    33    1
@<TRIPOS>MOLECULE
../data/bude_mols_rdkit_confs2/molecule_50.pdb
 33 35 0 0 0
SMALL
GASTEIGER

@<TRIPOS>ATOM
      1 O           6.7300    1.0010    1.5290 O.2     1  UNL1        0.0414
      2 N           5.5190    0.8270    1.7120 N.pl3   1  UNL1        0.0797
      3 O           4.9190    1.3820    2.8030 O.co2   1  UNL1       -0.5760
      4 C           4.7890    0.0560    0.7820 C.ar    1  UNL1        0.2767
      5 C           5.3970   -0.5050   -0.3220 C.ar    1  UNL1        0.0158
      6 C           4.6290   -1.2500   -1.1960 C.ar    1  UNL1       -0.0519
      7 C           3.2650   -1.4440   -0.9880 C.ar    1  UNL1       -0.0188
      8 C           2.6680   -0.8740    0.1260 C.ar    1  UNL1        0.1383
      9 O           1.3290   -1.0530    0.3490 O.3     1  UNL1       -0.4234
     10 C           0.3500   -0.1820   -0.1490 C.ar    1  UNL1        0.3239
     11 N           0.6780    0.8910   -0.8820 N.ar    1  UNL1       -0.2030
     12 C          -0.2320    1.7210   -1.3580 C.ar    1  UNL1        0.0350
     13 C          -1.5780    1.4560   -1.0780 C.ar    1  UNL1       -0.0173
     14 C          -1.9290    0.3830   -0.3430 C.ar    1  UNL1        0.0778
     15 C          -3.3290    0.1010   -0.0470 C.ar    1  UNL1        0.0006
     16 C          -4.3680    0.8820   -0.4810 C.ar    1  UNL1       -0.0526
     17 C          -5.7070    0.5990   -0.1890 C.ar    1  UNL1       -0.0611
     18 C          -6.0200   -0.5070    0.5650 C.ar    1  UNL1       -0.0617
     19 C          -4.9790   -1.2960    1.0030 C.ar    1  UNL1       -0.0611
     20 C          -3.6620   -1.0250    0.7210 C.ar    1  UNL1       -0.0526
     21 N          -0.9420   -0.4260    0.1130 N.ar    1  UNL1       -0.1946
     22 C           3.4320   -0.1390    0.9870 C.ar    1  UNL1        0.0579
     23 H           6.4061   -0.3708   -0.4917 H       1  UNL1        0.0685
     24 H           5.0769   -1.6735   -2.0237 H       1  UNL1        0.0621
     25 H           2.7078   -2.0032   -1.6527 H       1  UNL1        0.0654
     26 H           0.0412    2.5419   -1.9206 H       1  UNL1        0.0832
     27 H          -2.3088    2.0893   -1.4384 H       1  UNL1        0.0654
     28 H          -4.1533    1.7166   -1.0488 H       1  UNL1        0.0624
     29 H          -6.4558    1.2175   -0.5380 H       1  UNL1        0.0618
     30 H          -6.9993   -0.7379    0.7946 H       1  UNL1        0.0618
     31 H          -5.1989   -2.1300    1.5697 H       1  UNL1        0.0618
     32 H          -2.9190   -1.6485    1.0734 H       1  UNL1        0.0624
     33 H           2.9854    0.2842    1.8156 H       1  UNL1        0.0723
@<TRIPOS>UNITY_ATOM_ATTR
2 1
charge 1
3 1
charge -1
@<TRIPOS>BOND
     1     1     2    2
     2     2     3    1
     3     2     4    1
     4     4     5   ar
     5     4    22   ar
     6     5     6   ar
     7     6     7   ar
     8     7     8   ar
     9     8     9    1
    10     8    22   ar
    11     9    10    1
    12    10    11   ar
    13    10    21   ar
    14    11    12   ar
    15    12    13   ar
    16    13    14   ar
    17    14    15    1
    18    14    21   ar
    19    15    16   ar
    20    15    20   ar
    21    16    17   ar
    22    17    18   ar
    23    18    19   ar
    24    19    20   ar
    25     5    23    1
    26     6    24    1
    27     7    25    1
    28    12    26    1
    29    13    27    1
    30    16    28    1
    31    17    29    1
    32    18    30    1
    33    19    31    1
    34    20    32    1
    35    22    33    1
@<TRIPOS>MOLECULE
../data/bude_mols_rdkit_confs2/molecule_50.pdb
 33 35 0 0 0
SMALL
GASTEIGER

@<TRIPOS>ATOM
      1 O           5.0320    3.5200    0.8490 O.2     1  UNL1        0.0414
      2 N           5.6100    2.4530    0.5650 N.pl3   1  UNL1        0.0797
      3 O           6.9770    2.3720    0.5040 O.co2   1  UNL1       -0.5760
      4 C           4.8400    1.2880    0.2960 C.ar    1  UNL1        0.2767
      5 C           5.4660    0.0860   -0.0230 C.ar    1  UNL1        0.0158
      6 C           4.7300   -1.0370   -0.2820 C.ar    1  UNL1       -0.0519
      7 C           3.3310   -0.9910   -0.2300 C.ar    1  UNL1       -0.0188
      8 C           2.7160    0.1820    0.0820 C.ar    1  UNL1        0.1383
      9 O           1.3840    0.3200    0.1550 O.3     1  UNL1       -0.4234
     10 C           0.3290   -0.5170   -0.0230 C.ar    1  UNL1        0.3239
     11 N           0.4850   -1.8020   -0.3490 N.ar    1  UNL1       -0.2030
     12 C          -0.5870   -2.5890   -0.5140 C.ar    1  UNL1        0.0350
     13 C          -1.8680   -2.0660   -0.3460 C.ar    1  UNL1       -0.0173
     14 C          -2.0400   -0.7450   -0.0100 C.ar    1  UNL1        0.0778
     15 C          -3.3800   -0.1560    0.1760 C.ar    1  UNL1        0.0006
     16 C          -3.4980    1.1880    0.5160 C.ar    1  UNL1       -0.0526
     17 C          -4.7230    1.7820    0.7010 C.ar    1  UNL1       -0.0611
     18 C          -5.9000    1.0730    0.5580 C.ar    1  UNL1       -0.0617
     19 C          -5.7830   -0.2580    0.2220 C.ar    1  UNL1       -0.0611
     20 C          -4.5380   -0.8730    0.0310 C.ar    1  UNL1       -0.0526
     21 N          -0.9310   -0.0080    0.1410 N.ar    1  UNL1       -0.1946
     22 C           3.4720    1.3320    0.3470 C.ar    1  UNL1        0.0579
     23 H           6.4962    0.0421   -0.0644 H       1  UNL1        0.0685
     24 H           5.2070   -1.9216   -0.5166 H       1  UNL1        0.0621
     25 H           2.7732   -1.8369   -0.4260 H       1  UNL1        0.0654
     26 H          -0.4641   -3.5823   -0.7655 H       1  UNL1        0.0832
     27 H          -2.6917   -2.6743   -0.4747 H       1  UNL1        0.0654
     28 H          -2.6427    1.7537    0.6323 H       1  UNL1        0.0624
     29 H          -4.7649    2.7819    0.9529 H       1  UNL1        0.0618
     30 H          -6.8208    1.5181    0.6960 H       1  UNL1        0.0618
     31 H          -6.6404   -0.8208    0.1071 H       1  UNL1        0.0618
     32 H          -4.4936   -1.8729   -0.2206 H       1  UNL1        0.0624
     33 H           2.9954    2.2167    0.5818 H       1  UNL1        0.0723
@<TRIPOS>UNITY_ATOM_ATTR
2 1
charge 1
3 1
charge -1
@<TRIPOS>BOND
     1     1     2    2
     2     2     3    1
     3     2     4    1
     4     4     5   ar
     5     4    22   ar
     6     5     6   ar
     7     6     7   ar
     8     7     8   ar
     9     8     9    1
    10     8    22   ar
    11     9    10    1
    12    10    11   ar
    13    10    21   ar
    14    11    12   ar
    15    12    13   ar
    16    13    14   ar
    17    14    15    1
    18    14    21   ar
    19    15    16   ar
    20    15    20   ar
    21    16    17   ar
    22    17    18   ar
    23    18    19   ar
    24    19    20   ar
    25     5    23    1
    26     6    24    1
    27     7    25    1
    28    12    26    1
    29    13    27    1
    30    16    28    1
    31    17    29    1
    32    18    30    1
    33    19    31    1
    34    20    32    1
    35    22    33    1
@<TRIPOS>MOLECULE
../data/bude_mols_rdkit_confs2/molecule_50.pdb
 33 35 0 0 0
SMALL
GASTEIGER

@<TRIPOS>ATOM
      1 O           6.9940    1.6350    0.9250 O.2     1  UNL1        0.0414
      2 N           5.7690    1.8330    0.9050 N.pl3   1  UNL1        0.0797
      3 O           5.3200    3.0950    1.1920 O.co2   1  UNL1       -0.5760
      4 C           4.9100    0.7460    0.5880 C.ar    1  UNL1        0.2767
      5 C           5.4260   -0.4890    0.3120 C.ar    1  UNL1        0.0158
      6 C           4.5980   -1.5440    0.0040 C.ar    1  UNL1       -0.0519
      7 C           3.2150   -1.3540   -0.0270 C.ar    1  UNL1       -0.0188
      8 C           2.6640   -0.1390    0.2420 C.ar    1  UNL1        0.1383
      9 O           1.3450    0.1830    0.2470 O.3     1  UNL1       -0.4234
     10 C           0.2490   -0.5800   -0.0030 C.ar    1  UNL1        0.3239
     11 N           0.2460   -1.8710   -0.3230 N.ar    1  UNL1       -0.2030
     12 C          -0.8550   -2.5670   -0.5570 C.ar    1  UNL1        0.0350
     13 C          -2.0830   -1.9200   -0.4660 C.ar    1  UNL1       -0.0173
     14 C          -2.1300   -0.5870   -0.1390 C.ar    1  UNL1        0.0778
     15 C          -3.3420    0.2010   -0.0130 C.ar    1  UNL1        0.0006
     16 C          -3.2980    1.5400    0.3210 C.ar    1  UNL1       -0.0526
     17 C          -4.4310    2.3110    0.4480 C.ar    1  UNL1       -0.0611
     18 C          -5.6530    1.7350    0.2360 C.ar    1  UNL1       -0.0617
     19 C          -5.7380    0.4060   -0.0980 C.ar    1  UNL1       -0.0611
     20 C          -4.5710   -0.3490   -0.2180 C.ar    1  UNL1       -0.0526
     21 N          -0.9520    0.0290    0.0800 N.ar    1  UNL1       -0.1946
     22 C           3.5500    0.8990    0.5490 C.ar    1  UNL1        0.0579
     23 H           6.4478   -0.6319    0.3348 H       1  UNL1        0.0685
     24 H           4.9978   -2.4725   -0.2034 H       1  UNL1        0.0621
     25 H           2.5994   -2.1494   -0.2581 H       1  UNL1        0.0654
     26 H          -0.8036   -3.5682   -0.8017 H       1  UNL1        0.0832
     27 H          -2.9564   -2.4403   -0.6437 H       1  UNL1        0.0654
     28 H          -2.3786    1.9804    0.4819 H       1  UNL1        0.0624
     29 H          -4.3594    3.3093    0.6996 H       1  UNL1        0.0618
     30 H          -6.5120    2.2997    0.3271 H       1  UNL1        0.0618
     31 H          -6.6587   -0.0314   -0.2592 H       1  UNL1        0.0618
     32 H          -4.6406   -1.3478   -0.4680 H       1  UNL1        0.0624
     33 H           3.1574    1.8304    0.7573 H       1  UNL1        0.0723
@<TRIPOS>UNITY_ATOM_ATTR
2 1
charge 1
3 1
charge -1
@<TRIPOS>BOND
     1     1     2    2
     2     2     3    1
     3     2     4    1
     4     4     5   ar
     5     4    22   ar
     6     5     6   ar
     7     6     7   ar
     8     7     8   ar
     9     8     9    1
    10     8    22   ar
    11     9    10    1
    12    10    11   ar
    13    10    21   ar
    14    11    12   ar
    15    12    13   ar
    16    13    14   ar
    17    14    15    1
    18    14    21   ar
    19    15    16   ar
    20    15    20   ar
    21    16    17   ar
    22    17    18   ar
    23    18    19   ar
    24    19    20   ar
    25     5    23    1
    26     6    24    1
    27     7    25    1
    28    12    26    1
    29    13    27    1
    30    16    28    1
    31    17    29    1
    32    18    30    1
    33    19    31    1
    34    20    32    1
    35    22    33    1
@<TRIPOS>MOLECULE
../data/bude_mols_rdkit_confs2/molecule_50.pdb
 33 35 0 0 0
SMALL
GASTEIGER

@<TRIPOS>ATOM
      1 O           6.1540    1.6830    0.8540 O.2     1  UNL1        0.0414
      2 N           5.9000    1.2360   -0.2700 N.pl3   1  UNL1        0.0797
      3 O           6.7880    1.3690   -1.3000 O.co2   1  UNL1       -0.5760
      4 C           4.6750    0.5700   -0.5250 C.ar    1  UNL1        0.2767
      5 C           4.3510    0.0590   -1.7630 C.ar    1  UNL1        0.0158
      6 C           3.1430   -0.5820   -1.9640 C.ar    1  UNL1       -0.0519
      7 C           2.2100   -0.7420   -0.9510 C.ar    1  UNL1       -0.0188
      8 C           2.5360   -0.2310    0.2870 C.ar    1  UNL1        0.1383
      9 O           1.6940   -0.3230    1.3850 O.3     1  UNL1       -0.4234
     10 C           0.4340   -0.9330    1.3030 C.ar    1  UNL1        0.3239
     11 N           0.2290   -2.2200    1.6350 N.ar    1  UNL1       -0.2030
     12 C          -1.0060   -2.7720    1.5420 C.ar    1  UNL1        0.0350
     13 C          -2.0910   -2.0280    1.1030 C.ar    1  UNL1       -0.0173
     14 C          -1.8710   -0.7080    0.7650 C.ar    1  UNL1        0.0778
     15 C          -2.9540    0.1500    0.2950 C.ar    1  UNL1        0.0006
     16 C          -2.6720    1.4660   -0.0310 C.ar    1  UNL1       -0.0526
     17 C          -3.6300    2.3310   -0.4760 C.ar    1  UNL1       -0.0611
     18 C          -4.9450    1.8990   -0.6160 C.ar    1  UNL1       -0.0617
     19 C          -5.2560    0.5950   -0.3000 C.ar    1  UNL1       -0.0611
     20 C          -4.2520   -0.2570    0.1500 C.ar    1  UNL1       -0.0526
     21 N          -0.6320   -0.2320    0.8810 N.ar    1  UNL1       -0.1946
     22 C           3.7420    0.4070    0.4800 C.ar    1  UNL1        0.0579
     23 H           5.0157    0.1557   -2.5465 H       1  UNL1        0.0685
     24 H           2.9278   -0.9549   -2.9019 H       1  UNL1        0.0621
     25 H           1.3116   -1.2222   -1.1164 H       1  UNL1        0.0654
     26 H          -1.1408   -3.7616    1.8020 H       1  UNL1        0.0832
     27 H          -3.0313   -2.4473    1.0315 H       1  UNL1        0.0654
     28 H          -1.7022    1.8053    0.0660 H       1  UNL1        0.0624
     29 H          -3.3788    3.3046   -0.7084 H       1  UNL1        0.0618
     30 H          -5.6761    2.5456   -0.9514 H       1  UNL1        0.0618
     31 H          -6.2249    0.2529   -0.3961 H       1  UNL1        0.0618
     32 H          -4.4957   -1.2324    0.3831 H       1  UNL1        0.0624
     33 H           3.9577    0.7798    1.4178 H       1  UNL1        0.0723
@<TRIPOS>UNITY_ATOM_ATTR
2 1
charge 1
3 1
charge -1
@<TRIPOS>BOND
     1     1     2    2
     2     2     3    1
     3     2     4    1
     4     4     5   ar
     5     4    22   ar
     6     5     6   ar
     7     6     7   ar
     8     7     8   ar
     9     8     9    1
    10     8    22   ar
    11     9    10    1
    12    10    11   ar
    13    10    21   ar
    14    11    12   ar
    15    12    13   ar
    16    13    14   ar
    17    14    15    1
    18    14    21   ar
    19    15    16   ar
    20    15    20   ar
    21    16    17   ar
    22    17    18   ar
    23    18    19   ar
    24    19    20   ar
    25     5    23    1
    26     6    24    1
    27     7    25    1
    28    12    26    1
    29    13    27    1
    30    16    28    1
    31    17    29    1
    32    18    30    1
    33    19    31    1
    34    20    32    1
    35    22    33    1
@<TRIPOS>MOLECULE
../data/bude_mols_rdkit_confs2/molecule_50.pdb
 33 35 0 0 0
SMALL
GASTEIGER

@<TRIPOS>ATOM
      1 O           5.2290    1.9510    1.7290 O.2     1  UNL1        0.0414
      2 N           5.6630    1.0250    1.0210 N.pl3   1  UNL1        0.0797
      3 O           6.9890    0.7040    1.1460 O.co2   1  UNL1       -0.5760
      4 C           4.7830    0.3540    0.1300 C.ar    1  UNL1        0.2767
      5 C           5.2570   -0.6800   -0.6640 C.ar    1  UNL1        0.0158
      6 C           4.4380   -1.3650   -1.5480 C.ar    1  UNL1       -0.0519
      7 C           3.1170   -1.0330   -1.6610 C.ar    1  UNL1       -0.0188
      8 C           2.6370   -0.0040   -0.8740 C.ar    1  UNL1        0.1383
      9 O           1.3250    0.3650   -0.9510 O.3     1  UNL1       -0.4234
     10 C           0.3220   -0.1950   -0.1540 C.ar    1  UNL1        0.3239
     11 N           0.5640   -1.1440    0.7560 N.ar    1  UNL1       -0.2030
     12 C          -0.4130   -1.6720    1.5150 C.ar    1  UNL1        0.0350
     13 C          -1.7300   -1.2450    1.3810 C.ar    1  UNL1       -0.0173
     14 C          -1.9710   -0.2680    0.4420 C.ar    1  UNL1        0.0778
     15 C          -3.3100    0.2480    0.2220 C.ar    1  UNL1        0.0006
     16 C          -3.5180    1.2300   -0.7290 C.ar    1  UNL1       -0.0526
     17 C          -4.7590    1.7690   -0.9950 C.ar    1  UNL1       -0.0611
     18 C          -5.8420    1.3170   -0.2890 C.ar    1  UNL1       -0.0617
     19 C          -5.6650    0.3420    0.6620 C.ar    1  UNL1       -0.0611
     20 C          -4.4090   -0.1870    0.9140 C.ar    1  UNL1       -0.0526
     21 N          -0.9450    0.2300   -0.2980 N.ar    1  UNL1       -0.1946
     22 C           3.4510    0.6860    0.0130 C.ar    1  UNL1        0.0579
     23 H           6.2512   -0.9478   -0.5943 H       1  UNL1        0.0685
     24 H           4.8272   -2.1285   -2.1230 H       1  UNL1        0.0621
     25 H           2.4967   -1.5359   -2.3147 H       1  UNL1        0.0654
     26 H          -0.1825   -2.4033    2.2057 H       1  UNL1        0.0832
     27 H          -2.4890   -1.6412    1.9572 H       1  UNL1        0.0654
     28 H          -2.7065    1.5757   -1.2647 H       1  UNL1        0.0624
     29 H          -4.8699    2.5008   -1.7141 H       1  UNL1        0.0618
     30 H          -6.7811    1.7049   -0.4697 H       1  UNL1        0.0618
     31 H          -6.4784   -0.0014    1.1963 H       1  UNL1        0.0618
     32 H          -4.3003   -0.9190    1.6333 H       1  UNL1        0.0624
     33 H           3.0580    1.4491    0.5860 H       1  UNL1        0.0723
@<TRIPOS>UNITY_ATOM_ATTR
2 1
charge 1
3 1
charge -1
@<TRIPOS>BOND
     1     1     2    2
     2     2     3    1
     3     2     4    1
     4     4     5   ar
     5     4    22   ar
     6     5     6   ar
     7     6     7   ar
     8     7     8   ar
     9     8     9    1
    10     8    22   ar
    11     9    10    1
    12    10    11   ar
    13    10    21   ar
    14    11    12   ar
    15    12    13   ar
    16    13    14   ar
    17    14    15    1
    18    14    21   ar
    19    15    16   ar
    20    15    20   ar
    21    16    17   ar
    22    17    18   ar
    23    18    19   ar
    24    19    20   ar
    25     5    23    1
    26     6    24    1
    27     7    25    1
    28    12    26    1
    29    13    27    1
    30    16    28    1
    31    17    29    1
    32    18    30    1
    33    19    31    1
    34    20    32    1
    35    22    33    1
@<TRIPOS>MOLECULE
../data/bude_mols_rdkit_confs2/molecule_50.pdb
 33 35 0 0 0
SMALL
GASTEIGER

@<TRIPOS>ATOM
      1 O          -6.6750    2.0300    0.5920 O.2     1  UNL1        0.0414
      2 N          -5.4600    1.9440    0.8120 N.pl3   1  UNL1        0.0797
      3 O          -4.7870    3.0920    1.1180 O.co2   1  UNL1       -0.5760
      4 C          -4.7480    0.7130    0.7580 C.ar    1  UNL1        0.2767
      5 C          -5.3350   -0.4940    0.4590 C.ar    1  UNL1        0.0158
      6 C          -4.5950   -1.6670    0.4200 C.ar    1  UNL1       -0.0519
      7 C          -3.2400   -1.6660    0.6810 C.ar    1  UNL1       -0.0188
      8 C          -2.6480   -0.4680    0.9790 C.ar    1  UNL1        0.1383
      9 O          -1.2970   -0.4350    1.2430 O.3     1  UNL1       -0.4234
     10 C          -0.3640   -0.2390    0.2290 C.ar    1  UNL1        0.3239
     11 N          -0.7430   -0.0740   -1.0600 N.ar    1  UNL1       -0.2030
     12 C           0.1360    0.1160   -2.0500 C.ar    1  UNL1        0.0350
     13 C           1.4960    0.1390   -1.7130 C.ar    1  UNL1       -0.0173
     14 C           1.9140   -0.0250   -0.4190 C.ar    1  UNL1        0.0778
     15 C           3.3160   -0.0040   -0.0520 C.ar    1  UNL1        0.0006
     16 C           4.3360    0.1790   -0.9460 C.ar    1  UNL1       -0.0526
     17 C           5.6760    0.1900   -0.5300 C.ar    1  UNL1       -0.0611
     18 C           6.0210    0.0180    0.7900 C.ar    1  UNL1       -0.0617
     19 C           4.9850   -0.1650    1.6840 C.ar    1  UNL1       -0.0611
     20 C           3.6650   -0.1790    1.2920 C.ar    1  UNL1       -0.0526
     21 N           0.9460   -0.2120    0.5250 N.ar    1  UNL1       -0.1946
     22 C          -3.3810    0.6830    1.0160 C.ar    1  UNL1        0.0579
     23 H          -6.3470   -0.5281    0.2595 H       1  UNL1        0.0685
     24 H          -5.0664   -2.5562    0.1917 H       1  UNL1        0.0621
     25 H          -2.6910   -2.5394    0.6525 H       1  UNL1        0.0654
     26 H          -0.1757    0.2410   -3.0258 H       1  UNL1        0.0832
     27 H           2.1978    0.2826   -2.4559 H       1  UNL1        0.0654
     28 H           4.1153    0.3115   -1.9454 H       1  UNL1        0.0624
     29 H           6.4201    0.3305   -1.2311 H       1  UNL1        0.0618
     30 H           7.0062    0.0254    1.0973 H       1  UNL1        0.0618
     31 H           5.2081   -0.2962    2.6830 H       1  UNL1        0.0618
     32 H           2.9248   -0.3201    1.9971 H       1  UNL1        0.0624
     33 H          -2.9014    1.5677    1.2448 H       1  UNL1        0.0723
@<TRIPOS>UNITY_ATOM_ATTR
2 1
charge 1
3 1
charge -1
@<TRIPOS>BOND
     1     1     2    2
     2     2     3    1
     3     2     4    1
     4     4     5   ar
     5     4    22   ar
     6     5     6   ar
     7     6     7   ar
     8     7     8   ar
     9     8     9    1
    10     8    22   ar
    11     9    10    1
    12    10    11   ar
    13    10    21   ar
    14    11    12   ar
    15    12    13   ar
    16    13    14   ar
    17    14    15    1
    18    14    21   ar
    19    15    16   ar
    20    15    20   ar
    21    16    17   ar
    22    17    18   ar
    23    18    19   ar
    24    19    20   ar
    25     5    23    1
    26     6    24    1
    27     7    25    1
    28    12    26    1
    29    13    27    1
    30    16    28    1
    31    17    29    1
    32    18    30    1
    33    19    31    1
    34    20    32    1
    35    22    33    1
@<TRIPOS>MOLECULE
../data/bude_mols_rdkit_confs2/molecule_50.pdb
 33 35 0 0 0
SMALL
GASTEIGER

@<TRIPOS>ATOM
      1 O           6.2580   -0.5650   -2.0120 O.2     1  UNL1        0.0414
      2 N           5.5080   -0.8750   -1.0800 N.pl3   1  UNL1        0.0797
      3 O           5.7310   -2.0320   -0.3730 O.co2   1  UNL1       -0.5760
      4 C           4.3910   -0.0790   -0.6840 C.ar    1  UNL1        0.2767
      5 C           4.1200    1.1070   -1.3730 C.ar    1  UNL1        0.0158
      6 C           3.0440    1.8760   -0.9920 C.ar    1  UNL1       -0.0519
      7 C           2.2210    1.5040    0.0570 C.ar    1  UNL1       -0.0188
      8 C           2.4720    0.3330    0.7520 C.ar    1  UNL1        0.1383
      9 O           1.6730   -0.0780    1.8100 O.3     1  UNL1       -0.4234
     10 C           0.5690   -0.8850    1.4770 C.ar    1  UNL1        0.3239
     11 N           0.5800   -2.2090    1.5210 N.ar    1  UNL1       -0.2030
     12 C          -0.5390   -2.8660    1.1790 C.ar    1  UNL1        0.0350
     13 C          -1.6940   -2.1850    0.7840 C.ar    1  UNL1       -0.0173
     14 C          -1.6840   -0.8100    0.7450 C.ar    1  UNL1        0.0778
     15 C          -2.8510   -0.0370    0.3440 C.ar    1  UNL1        0.0006
     16 C          -4.0540   -0.5850   -0.0280 C.ar    1  UNL1       -0.0526
     17 C          -5.1320    0.2120   -0.4000 C.ar    1  UNL1       -0.0611
     18 C          -5.0270    1.5870   -0.4090 C.ar    1  UNL1       -0.0617
     19 C          -3.8300    2.1440   -0.0390 C.ar    1  UNL1       -0.0611
     20 C          -2.7670    1.3450    0.3290 C.ar    1  UNL1       -0.0526
     21 N          -0.5290   -0.2080    1.1010 N.ar    1  UNL1       -0.1946
     22 C           3.5670   -0.4180    0.3400 C.ar    1  UNL1        0.0579
     23 H           4.7202    1.4026   -2.1587 H       1  UNL1        0.0685
     24 H           2.8459    2.7516   -1.5010 H       1  UNL1        0.0621
     25 H           1.4205    2.0993    0.3210 H       1  UNL1        0.0654
     26 H          -0.5470   -3.8976    1.2083 H       1  UNL1        0.0832
     27 H          -2.5449   -2.7080    0.5245 H       1  UNL1        0.0654
     28 H          -4.1609   -1.6114   -0.0317 H       1  UNL1        0.0624
     29 H          -6.0227   -0.2320   -0.6730 H       1  UNL1        0.0618
     30 H          -5.8256    2.1791   -0.6860 H       1  UNL1        0.0618
     31 H          -3.7231    3.1704   -0.0357 H       1  UNL1        0.0618
     32 H          -1.8785    1.7930    0.6026 H       1  UNL1        0.0624
     33 H           3.7672   -1.2938    0.8478 H       1  UNL1        0.0723
@<TRIPOS>UNITY_ATOM_ATTR
2 1
charge 1
3 1
charge -1
@<TRIPOS>BOND
     1     1     2    2
     2     2     3    1
     3     2     4    1
     4     4     5   ar
     5     4    22   ar
     6     5     6   ar
     7     6     7   ar
     8     7     8   ar
     9     8     9    1
    10     8    22   ar
    11     9    10    1
    12    10    11   ar
    13    10    21   ar
    14    11    12   ar
    15    12    13   ar
    16    13    14   ar
    17    14    15    1
    18    14    21   ar
    19    15    16   ar
    20    15    20   ar
    21    16    17   ar
    22    17    18   ar
    23    18    19   ar
    24    19    20   ar
    25     5    23    1
    26     6    24    1
    27     7    25    1
    28    12    26    1
    29    13    27    1
    30    16    28    1
    31    17    29    1
    32    18    30    1
    33    19    31    1
    34    20    32    1
    35    22    33    1
@<TRIPOS>MOLECULE
../data/bude_mols_rdkit_confs2/molecule_50.pdb
 33 35 0 0 0
SMALL
GASTEIGER

@<TRIPOS>ATOM
      1 O           6.5430   -1.3710    0.8090 O.2     1  UNL1        0.0414
      2 N           5.7280   -0.7150    0.1370 N.pl3   1  UNL1        0.0797
      3 O           6.0180   -0.4000   -1.1610 O.co2   1  UNL1       -0.5760
      4 C           4.5250   -0.3070    0.7180 C.ar    1  UNL1        0.2767
      5 C           4.2250   -0.6260    2.0420 C.ar    1  UNL1        0.0158
      6 C           3.0190   -0.1990    2.5720 C.ar    1  UNL1       -0.0519
      7 C           2.1400    0.5280    1.7930 C.ar    1  UNL1       -0.0188
      8 C           2.4130    0.8570    0.4800 C.ar    1  UNL1        0.1383
      9 O           1.5100    1.5860   -0.2680 O.3     1  UNL1       -0.4234
     10 C           0.4960    0.9760   -1.0330 C.ar    1  UNL1        0.3239
     11 N           0.6830    0.7330   -2.3410 N.ar    1  UNL1       -0.2030
     12 C          -0.2850    0.1470   -3.0930 C.ar    1  UNL1        0.0350
     13 C          -1.4810   -0.2040   -2.4950 C.ar    1  UNL1       -0.0173
     14 C          -1.6940    0.0340   -1.1610 C.ar    1  UNL1        0.0778
     15 C          -2.9360   -0.3180   -0.4900 C.ar    1  UNL1        0.0006
     16 C          -3.9720   -0.9100   -1.1470 C.ar    1  UNL1       -0.0526
     17 C          -5.1520   -1.2340   -0.4700 C.ar    1  UNL1       -0.0611
     18 C          -5.2660   -0.9470    0.8950 C.ar    1  UNL1       -0.0617
     19 C          -4.2190   -0.3480    1.5610 C.ar    1  UNL1       -0.0611
     20 C          -3.0600   -0.0400    0.8540 C.ar    1  UNL1       -0.0526
     21 N          -0.6730    0.6240   -0.4840 N.ar    1  UNL1       -0.1946
     22 C           3.6240    0.4200   -0.0290 C.ar    1  UNL1        0.0579
     23 H           4.8887   -1.1696    2.6156 H       1  UNL1        0.0685
     24 H           2.7768   -0.4241    3.5496 H       1  UNL1        0.0621
     25 H           1.2466    0.8365    2.2074 H       1  UNL1        0.0654
     26 H          -0.1296   -0.0337   -4.0971 H       1  UNL1        0.0832
     27 H          -2.2217   -0.6500   -3.0584 H       1  UNL1        0.0654
     28 H          -3.8853   -1.1213   -2.1534 H       1  UNL1        0.0624
     29 H          -5.9336   -1.6818   -0.9737 H       1  UNL1        0.0618
     30 H          -6.1331   -1.1837    1.4021 H       1  UNL1        0.0618
     31 H          -4.2928   -0.1313    2.5673 H       1  UNL1        0.0618
     32 H          -2.2733    0.4081    1.3492 H       1  UNL1        0.0624
     33 H           3.8614    0.6479   -1.0071 H       1  UNL1        0.0723
@<TRIPOS>UNITY_ATOM_ATTR
2 1
charge 1
3 1
charge -1
@<TRIPOS>BOND
     1     1     2    2
     2     2     3    1
     3     2     4    1
     4     4     5   ar
     5     4    22   ar
     6     5     6   ar
     7     6     7   ar
     8     7     8   ar
     9     8     9    1
    10     8    22   ar
    11     9    10    1
    12    10    11   ar
    13    10    21   ar
    14    11    12   ar
    15    12    13   ar
    16    13    14   ar
    17    14    15    1
    18    14    21   ar
    19    15    16   ar
    20    15    20   ar
    21    16    17   ar
    22    17    18   ar
    23    18    19   ar
    24    19    20   ar
    25     5    23    1
    26     6    24    1
    27     7    25    1
    28    12    26    1
    29    13    27    1
    30    16    28    1
    31    17    29    1
    32    18    30    1
    33    19    31    1
    34    20    32    1
    35    22    33    1
@<TRIPOS>MOLECULE
../data/bude_mols_rdkit_confs2/molecule_50.pdb
 33 35 0 0 0
SMALL
GASTEIGER

@<TRIPOS>ATOM
      1 O          -5.8170   -1.6580    0.4000 O.2     1  UNL1        0.0414
      2 N          -5.6500   -0.8750   -0.5440 N.pl3   1  UNL1        0.0797
      3 O          -6.5650   -0.8580   -1.5560 O.co2   1  UNL1       -0.5760
      4 C          -4.5250   -0.0230   -0.5510 C.ar    1  UNL1        0.2767
      5 C          -4.3040    0.8680   -1.5910 C.ar    1  UNL1        0.0158
      6 C          -3.2060    1.6770   -1.5670 C.ar    1  UNL1       -0.0519
      7 C          -2.3000    1.6390   -0.5340 C.ar    1  UNL1       -0.0188
      8 C          -2.4880    0.7670    0.5130 C.ar    1  UNL1        0.1383
      9 O          -1.6070    0.6950    1.5680 O.3     1  UNL1       -0.4234
     10 C          -0.4990   -0.1770    1.5370 C.ar    1  UNL1        0.3239
     11 N          -0.6020   -1.3850    2.1030 N.ar    1  UNL1       -0.2030
     12 C           0.4370   -2.2270    2.0850 C.ar    1  UNL1        0.0350
     13 C           1.6210   -1.8280    1.4700 C.ar    1  UNL1       -0.0173
     14 C           1.7380   -0.5880    0.8840 C.ar    1  UNL1        0.0778
     15 C           2.9510   -0.1280    0.2330 C.ar    1  UNL1        0.0006
     16 C           4.0950   -0.8830    0.1380 C.ar    1  UNL1       -0.0526
     17 C           5.2560   -0.4450   -0.4840 C.ar    1  UNL1       -0.0611
     18 C           5.2310    0.8230   -1.0280 C.ar    1  UNL1       -0.0617
     19 C           4.1040    1.6140   -0.9550 C.ar    1  UNL1       -0.0611
     20 C           2.9780    1.1470   -0.3330 C.ar    1  UNL1       -0.0526
     21 N           0.6490    0.1960    0.9470 N.ar    1  UNL1       -0.1946
     22 C          -3.6090   -0.0520    0.4790 C.ar    1  UNL1        0.0579
     23 H          -4.9676    0.9186   -2.3797 H       1  UNL1        0.0685
     24 H          -3.0512    2.3359   -2.3461 H       1  UNL1        0.0621
     25 H          -1.4791    2.2644   -0.5440 H       1  UNL1        0.0654
     26 H           0.3623   -3.1595    2.5208 H       1  UNL1        0.0832
     27 H           2.4256   -2.4740    1.4533 H       1  UNL1        0.0654
     28 H           4.0908   -1.8283    0.5521 H       1  UNL1        0.0624
     29 H           6.0980   -1.0394   -0.5371 H       1  UNL1        0.0618
     30 H           6.0738    1.1870   -1.4995 H       1  UNL1        0.0618
     31 H           4.1096    2.5590   -1.3698 H       1  UNL1        0.0618
     32 H           2.1386    1.7452   -0.2820 H       1  UNL1        0.0624
     33 H          -3.7630   -0.7107    1.2583 H       1  UNL1        0.0723
@<TRIPOS>UNITY_ATOM_ATTR
2 1
charge 1
3 1
charge -1
@<TRIPOS>BOND
     1     1     2    2
     2     2     3    1
     3     2     4    1
     4     4     5   ar
     5     4    22   ar
     6     5     6   ar
     7     6     7   ar
     8     7     8   ar
     9     8     9    1
    10     8    22   ar
    11     9    10    1
    12    10    11   ar
    13    10    21   ar
    14    11    12   ar
    15    12    13   ar
    16    13    14   ar
    17    14    15    1
    18    14    21   ar
    19    15    16   ar
    20    15    20   ar
    21    16    17   ar
    22    17    18   ar
    23    18    19   ar
    24    19    20   ar
    25     5    23    1
    26     6    24    1
    27     7    25    1
    28    12    26    1
    29    13    27    1
    30    16    28    1
    31    17    29    1
    32    18    30    1
    33    19    31    1
    34    20    32    1
    35    22    33    1
@<TRIPOS>MOLECULE
../data/bude_mols_rdkit_confs2/molecule_50.pdb
 33 35 0 0 0
SMALL
GASTEIGER

@<TRIPOS>ATOM
      1 O           6.8410    1.5310   -0.2590 O.2     1  UNL1        0.0414
      2 N           5.9180    1.3840    0.5360 N.pl3   1  UNL1        0.0797
      3 O           6.0140    1.8540    1.8250 O.co2   1  UNL1       -0.5760
      4 C           4.7150    0.7150    0.1280 C.ar    1  UNL1        0.2767
      5 C           4.5760    0.2340   -1.1400 C.ar    1  UNL1        0.0158
      6 C           3.3990   -0.4080   -1.5020 C.ar    1  UNL1       -0.0519
      7 C           2.3650   -0.5710   -0.6030 C.ar    1  UNL1       -0.0188
      8 C           2.5020   -0.0860    0.6800 C.ar    1  UNL1        0.1383
      9 O           1.5130   -0.2150    1.6210 O.3     1  UNL1       -0.4234
     10 C           0.2920   -0.8390    1.3680 C.ar    1  UNL1        0.3239
     11 N           0.1160   -2.1330    1.6810 N.ar    1  UNL1       -0.2030
     12 C          -1.0310   -2.7770    1.4600 C.ar    1  UNL1        0.0350
     13 C          -2.0860   -2.0540    0.8760 C.ar    1  UNL1       -0.0173
     14 C          -1.9450   -0.7370    0.5430 C.ar    1  UNL1        0.0778
     15 C          -2.9940    0.0580   -0.0600 C.ar    1  UNL1        0.0006
     16 C          -4.2140   -0.4790   -0.3370 C.ar    1  UNL1       -0.0526
     17 C          -5.2290    0.2940   -0.9230 C.ar    1  UNL1       -0.0611
     18 C          -5.0140    1.6180   -1.2320 C.ar    1  UNL1       -0.0617
     19 C          -3.7740    2.1860   -0.9570 C.ar    1  UNL1       -0.0611
     20 C          -2.8050    1.3990   -0.3840 C.ar    1  UNL1       -0.0526
     21 N          -0.7250   -0.1760    0.8140 N.ar    1  UNL1       -0.1946
     22 C           3.6710    0.5470    1.0260 C.ar    1  UNL1        0.0579
     23 H           5.3393    0.3461   -1.8254 H       1  UNL1        0.0685
     24 H           3.2956   -0.7705   -2.4627 H       1  UNL1        0.0621
     25 H           1.4974   -1.0514   -0.8884 H       1  UNL1        0.0654
     26 H          -1.1404   -3.7724    1.7093 H       1  UNL1        0.0832
     27 H          -2.9848   -2.5279    0.6954 H       1  UNL1        0.0654
     28 H          -4.3956   -1.4698   -0.1127 H       1  UNL1        0.0624
     29 H          -6.1458   -0.1349   -1.1242 H       1  UNL1        0.0618
     30 H          -5.7632    2.1824   -1.6623 H       1  UNL1        0.0618
     31 H          -3.5865    3.1763   -1.1786 H       1  UNL1        0.0618
     32 H          -1.8868    1.8248   -0.1826 H       1  UNL1        0.0624
     33 H           3.7762    0.9098    1.9864 H       1  UNL1        0.0723
@<TRIPOS>UNITY_ATOM_ATTR
2 1
charge 1
3 1
charge -1
@<TRIPOS>BOND
     1     1     2    2
     2     2     3    1
     3     2     4    1
     4     4     5   ar
     5     4    22   ar
     6     5     6   ar
     7     6     7   ar
     8     7     8   ar
     9     8     9    1
    10     8    22   ar
    11     9    10    1
    12    10    11   ar
    13    10    21   ar
    14    11    12   ar
    15    12    13   ar
    16    13    14   ar
    17    14    15    1
    18    14    21   ar
    19    15    16   ar
    20    15    20   ar
    21    16    17   ar
    22    17    18   ar
    23    18    19   ar
    24    19    20   ar
    25     5    23    1
    26     6    24    1
    27     7    25    1
    28    12    26    1
    29    13    27    1
    30    16    28    1
    31    17    29    1
    32    18    30    1
    33    19    31    1
    34    20    32    1
    35    22    33    1
@<TRIPOS>MOLECULE
../data/bude_mols_rdkit_confs2/molecule_50.pdb
 33 35 0 0 0
SMALL
GASTEIGER

@<TRIPOS>ATOM
      1 O           6.4530    0.4930    2.4030 O.2     1  UNL1        0.0414
      2 N           5.6310    1.2010    1.7980 N.pl3   1  UNL1        0.0797
      3 O           5.7730    2.5650    1.6850 O.co2   1  UNL1       -0.5760
      4 C           4.5040    0.5790    1.2030 C.ar    1  UNL1        0.2767
      5 C           4.3510   -0.7820    1.3090 C.ar    1  UNL1        0.0158
      6 C           3.2760   -1.4490    0.7520 C.ar    1  UNL1       -0.0519
      7 C           2.3380   -0.6930    0.0720 C.ar    1  UNL1       -0.0188
      8 C           2.4820    0.6900   -0.0430 C.ar    1  UNL1        0.1383
      9 O           1.5200    1.4200   -0.7350 O.3     1  UNL1       -0.4234
     10 C           0.4280    0.7840   -1.3010 C.ar    1  UNL1        0.3239
     11 N           0.4780    0.4320   -2.6060 N.ar    1  UNL1       -0.2030
     12 C          -0.5240   -0.1820   -3.2280 C.ar    1  UNL1        0.0350
     13 C          -1.6700   -0.4630   -2.4750 C.ar    1  UNL1       -0.0173
     14 C          -1.7600   -0.1230   -1.1530 C.ar    1  UNL1        0.0778
     15 C          -2.9420   -0.4100   -0.3640 C.ar    1  UNL1        0.0006
     16 C          -4.0650   -1.0340   -0.8320 C.ar    1  UNL1       -0.0526
     17 C          -5.1680   -1.2740    0.0000 C.ar    1  UNL1       -0.0611
     18 C          -5.1590   -0.8890    1.3180 C.ar    1  UNL1       -0.0617
     19 C          -4.0290   -0.2560    1.8070 C.ar    1  UNL1       -0.0611
     20 C          -2.9500   -0.0240    0.9830 C.ar    1  UNL1       -0.0526
     21 N          -0.6820    0.5020   -0.6040 N.ar    1  UNL1       -0.1946
     22 C           3.5610    1.3370    0.5190 C.ar    1  UNL1        0.0579
     23 H           5.0630   -1.3251    1.8220 H       1  UNL1        0.0685
     24 H           3.1769   -2.4724    0.8401 H       1  UNL1        0.0621
     25 H           1.5217   -1.1577   -0.3555 H       1  UNL1        0.0654
     26 H          -0.4594   -0.4407   -4.2249 H       1  UNL1        0.0832
     27 H          -2.4662   -0.9381   -2.9281 H       1  UNL1        0.0654
     28 H          -4.1016   -1.3348   -1.8185 H       1  UNL1        0.0624
     29 H          -6.0002   -1.7478   -0.3846 H       1  UNL1        0.0618
     30 H          -5.9726   -1.0667    1.9276 H       1  UNL1        0.0618
     31 H          -3.9950    0.0436    2.7940 H       1  UNL1        0.0618
     32 H          -2.1194    0.4501    1.3707 H       1  UNL1        0.0624
     33 H           3.6664    2.3601    0.4340 H       1  UNL1        0.0723
@<TRIPOS>UNITY_ATOM_ATTR
2 1
charge 1
3 1
charge -1
@<TRIPOS>BOND
     1     1     2    2
     2     2     3    1
     3     2     4    1
     4     4     5   ar
     5     4    22   ar
     6     5     6   ar
     7     6     7   ar
     8     7     8   ar
     9     8     9    1
    10     8    22   ar
    11     9    10    1
    12    10    11   ar
    13    10    21   ar
    14    11    12   ar
    15    12    13   ar
    16    13    14   ar
    17    14    15    1
    18    14    21   ar
    19    15    16   ar
    20    15    20   ar
    21    16    17   ar
    22    17    18   ar
    23    18    19   ar
    24    19    20   ar
    25     5    23    1
    26     6    24    1
    27     7    25    1
    28    12    26    1
    29    13    27    1
    30    16    28    1
    31    17    29    1
    32    18    30    1
    33    19    31    1
    34    20    32    1
    35    22    33    1
@<TRIPOS>MOLECULE
../data/bude_mols_rdkit_confs2/molecule_50.pdb
 33 35 0 0 0
SMALL
GASTEIGER

@<TRIPOS>ATOM
      1 O          -6.8440   -0.8970   -0.3760 O.2     1  UNL1        0.0414
      2 N          -5.6180   -0.9600   -0.3700 N.pl3   1  UNL1        0.0797
      3 O          -5.0380   -2.2020   -0.5570 O.co2   1  UNL1       -0.5760
      4 C          -4.7890    0.1720   -0.1820 C.ar    1  UNL1        0.2767
      5 C          -5.3400    1.4020    0.0030 C.ar    1  UNL1        0.0158
      6 C          -4.5020    2.4900    0.1840 C.ar    1  UNL1       -0.0519
      7 C          -3.1480    2.3770    0.1840 C.ar    1  UNL1       -0.0188
      8 C          -2.5520    1.1170   -0.0050 C.ar    1  UNL1        0.1383
      9 O          -1.2080    1.0320   -0.0010 O.3     1  UNL1       -0.4234
     10 C          -0.3580    0.0020   -0.1510 C.ar    1  UNL1        0.3239
     11 N          -0.7820   -1.2480   -0.3520 N.ar    1  UNL1       -0.2030
     12 C           0.0880   -2.2410   -0.4960 C.ar    1  UNL1        0.0350
     13 C           1.4290   -1.9610   -0.4350 C.ar    1  UNL1       -0.0173
     14 C           1.9070   -0.6900   -0.2300 C.ar    1  UNL1        0.0778
     15 C           3.3410   -0.4080   -0.1670 C.ar    1  UNL1        0.0006
     16 C           4.3280   -1.3400   -0.3000 C.ar    1  UNL1       -0.0526
     17 C           5.6900   -1.0270   -0.2340 C.ar    1  UNL1       -0.0611
     18 C           6.0590    0.2830   -0.0240 C.ar    1  UNL1       -0.0617
     19 C           5.0780    1.2440    0.1140 C.ar    1  UNL1       -0.0611
     20 C           3.7430    0.9180    0.0450 C.ar    1  UNL1       -0.0526
     21 N           0.9890    0.2770   -0.0910 N.ar    1  UNL1       -0.1946
     22 C          -3.4030    0.0600   -0.1820 C.ar    1  UNL1        0.0579
     23 H          -6.3649    1.5224    0.0084 H       1  UNL1        0.0685
     24 H          -4.9222    3.4221    0.3242 H       1  UNL1        0.0621
     25 H          -2.5588    3.2129    0.3222 H       1  UNL1        0.0654
     26 H          -0.2397   -3.2072   -0.6512 H       1  UNL1        0.0832
     27 H           2.1038   -2.7337   -0.5473 H       1  UNL1        0.0654
     28 H           4.0571   -2.3234   -0.4569 H       1  UNL1        0.0624
     29 H           6.4046   -1.7639   -0.3407 H       1  UNL1        0.0618
     30 H           7.0563    0.5428    0.0295 H       1  UNL1        0.0618
     31 H           5.3512    2.2266    0.2721 H       1  UNL1        0.0618
     32 H           3.0306    1.6571    0.1504 H       1  UNL1        0.0624
     33 H          -2.9917   -0.8758   -0.3239 H       1  UNL1        0.0723
@<TRIPOS>UNITY_ATOM_ATTR
2 1
charge 1
3 1
charge -1
@<TRIPOS>BOND
     1     1     2    2
     2     2     3    1
     3     2     4    1
     4     4     5   ar
     5     4    22   ar
     6     5     6   ar
     7     6     7   ar
     8     7     8   ar
     9     8     9    1
    10     8    22   ar
    11     9    10    1
    12    10    11   ar
    13    10    21   ar
    14    11    12   ar
    15    12    13   ar
    16    13    14   ar
    17    14    15    1
    18    14    21   ar
    19    15    16   ar
    20    15    20   ar
    21    16    17   ar
    22    17    18   ar
    23    18    19   ar
    24    19    20   ar
    25     5    23    1
    26     6    24    1
    27     7    25    1
    28    12    26    1
    29    13    27    1
    30    16    28    1
    31    17    29    1
    32    18    30    1
    33    19    31    1
    34    20    32    1
    35    22    33    1
