@<TRIPOS>MOLECULE
../data/bude_mols_rdkit_confs2/molecule_27.pdb
 38 40 0 0 0
SMALL
GASTEIGER

@<TRIPOS>ATOM
      1  O1        -0.2870    0.6340    0.4450 O.2     1  UNL1       -0.2449
      2  C1        -0.9450   -0.3210    0.0150 C.2     1  UNL1        0.3401
      3  O2        -0.1930   -1.4220   -0.4110 O.3     1  UNL1       -0.4577
      4  C2         1.2190   -1.4780   -0.3660 C.3     1  UNL1        0.1267
      5  C3         1.7950   -1.3620    1.0090 C.3     1  UNL1        0.1236
      6  O3         3.1620   -1.4180    1.0240 O.3     1  UNL1       -0.4886
      7  C4         4.1540   -0.6570    0.5210 C.ar    1  UNL1        0.1208
      8  C5         5.4570   -1.0720    0.7350 C.ar    1  UNL1       -0.0172
      9  C6         6.5180   -0.3560    0.2600 C.ar    1  UNL1       -0.0230
     10  C7         6.3180    0.8060   -0.4500 C.ar    1  UNL1        0.1236
     11  F1         7.3910    1.4920   -0.9070 F       1  UNL1       -0.2055
     12  C8         5.0300    1.2320   -0.6710 C.ar    1  UNL1       -0.0230
     13  C9         3.9470    0.4930   -0.1820 C.ar    1  UNL1       -0.0172
     14  C10       -2.3920   -0.4130   -0.0900 C.ar    1  UNL1        0.0732
     15  C11       -2.9560   -1.5760   -0.6270 C.ar    1  UNL1        0.0173
     16  C12       -4.3130   -1.7220   -0.7540 C.ar    1  UNL1        0.2500
     17  O4        -4.8150   -2.7830   -1.2440 O.2     1  UNL1       -0.2679
     18  N1        -5.1470   -0.7440   -0.3650 N.ar    1  UNL1       -0.3221
     19  C13       -4.6650    0.4020    0.1610 C.ar    1  UNL1        0.0500
     20  C14       -5.5360    1.3960    0.5570 C.ar    1  UNL1       -0.0377
     21  C15       -5.0310    2.5620    1.0930 C.ar    1  UNL1       -0.0598
     22  C16       -3.6770    2.7440    1.2370 C.ar    1  UNL1       -0.0611
     23  C17       -2.7960    1.7390    0.8360 C.ar    1  UNL1       -0.0518
     24  C18       -3.2790    0.5660    0.2980 C.ar    1  UNL1        0.0125
     25 H           1.6054   -0.6764   -0.9601 H       1  UNL1        0.0732
     26 H           1.4998   -2.4420   -0.7359 H       1  UNL1        0.0732
     27 H           1.4146   -2.1640    1.6065 H       1  UNL1        0.0731
     28 H           1.5103   -0.4055    1.3949 H       1  UNL1        0.0731
     29 H           5.6301   -1.9407    1.2646 H       1  UNL1        0.0655
     30 H           7.4789   -0.6892    0.4350 H       1  UNL1        0.0647
     31 H           4.8607    2.1015   -1.2004 H       1  UNL1        0.0647
     32 H           2.9839    0.8209   -0.3548 H       1  UNL1        0.0655
     33 H          -2.3358   -2.3414   -0.9345 H       1  UNL1        0.0680
     34 H          -6.1191   -0.8639   -0.4644 H       1  UNL1        0.1689
     35 H          -6.5548    1.2683    0.4532 H       1  UNL1        0.0638
     36 H          -5.6792    3.3081    1.3900 H       1  UNL1        0.0618
     37 H          -3.3126    3.6212    1.6405 H       1  UNL1        0.0618
     38 H          -1.7786    1.8748    0.9428 H       1  UNL1        0.0624
@<TRIPOS>BOND
     1     1     2    2
     2     2     3    1
     3     2    14    1
     4     3     4    1
     5     4     5    1
     6     5     6    1
     7     6     7    1
     8     7     8   ar
     9     7    13   ar
    10     8     9   ar
    11     9    10   ar
    12    10    11    1
    13    10    12   ar
    14    12    13   ar
    15    14    15   ar
    16    14    24   ar
    17    15    16   ar
    18    16    17    2
    19    16    18   ar
    20    18    19   ar
    21    19    20   ar
    22    19    24   ar
    23    20    21   ar
    24    21    22   ar
    25    22    23   ar
    26    23    24   ar
    27     4    25    1
    28     4    26    1
    29     5    27    1
    30     5    28    1
    31     8    29    1
    32     9    30    1
    33    12    31    1
    34    13    32    1
    35    15    33    1
    36    18    34    1
    37    20    35    1
    38    21    36    1
    39    22    37    1
    40    23    38    1
@<TRIPOS>MOLECULE
../data/bude_mols_rdkit_confs2/molecule_27.pdb
 38 40 0 0 0
SMALL
GASTEIGER

@<TRIPOS>ATOM
      1  O1         0.9650   -0.1680   -1.3620 O.2     1  UNL1       -0.2449
      2  C1         1.1340   -0.4090   -0.1570 C.2     1  UNL1        0.3401
      3  O2        -0.0520   -0.6650    0.5560 O.3     1  UNL1       -0.4577
      4  C2        -1.3350   -0.6560    0.0050 C.3     1  UNL1        0.1267
      5  C3        -1.7790    0.6520   -0.5650 C.3     1  UNL1        0.1236
      6  O3        -3.0360    0.7100   -1.1120 O.3     1  UNL1       -0.4886
      7  C4        -4.2640    0.5620   -0.5310 C.ar    1  UNL1        0.1208
      8  C5        -4.4770    0.3450    0.8120 C.ar    1  UNL1       -0.0172
      9  C6        -5.7900    0.2060    1.2810 C.ar    1  UNL1       -0.0230
     10  C7        -6.8770    0.2810    0.4380 C.ar    1  UNL1        0.1236
     11  F1        -8.1040    0.1320    0.9970 F       1  UNL1       -0.2055
     12  C8        -6.6810    0.4990   -0.9030 C.ar    1  UNL1       -0.0230
     13  C9        -5.4030    0.6340   -1.3580 C.ar    1  UNL1       -0.0172
     14  C10        2.4030   -0.4470    0.5440 C.ar    1  UNL1        0.0732
     15  C11        2.3640   -0.7410    1.9200 C.ar    1  UNL1        0.0173
     16  C12        3.5640   -0.7760    2.5800 C.ar    1  UNL1        0.2500
     17  O4         3.5650   -1.0390    3.8230 O.2     1  UNL1       -0.2679
     18  N1         4.7200   -0.5400    1.9390 N.ar    1  UNL1       -0.3221
     19  C13        4.7730   -0.2580    0.6240 C.ar    1  UNL1        0.0500
     20  C14        5.9720   -0.0190   -0.0140 C.ar    1  UNL1       -0.0377
     21  C15        6.0260    0.2700   -1.3590 C.ar    1  UNL1       -0.0598
     22  C16        4.8780    0.3260   -2.1010 C.ar    1  UNL1       -0.0611
     23  C17        3.6700    0.0830   -1.4470 C.ar    1  UNL1       -0.0518
     24  C18        3.5800   -0.2080   -0.1060 C.ar    1  UNL1        0.0125
     25 H          -2.0262   -0.9328    0.7735 H       1  UNL1        0.0732
     26 H          -1.3078   -1.3413   -0.8163 H       1  UNL1        0.0732
     27 H          -1.0829    0.9203   -1.3320 H       1  UNL1        0.0731
     28 H          -1.8151    1.3166    0.2728 H       1  UNL1        0.0731
     29 H          -3.6798    0.2855    1.4647 H       1  UNL1        0.0655
     30 H          -5.9474    0.0426    2.2877 H       1  UNL1        0.0647
     31 H          -7.4818    0.5593   -1.5512 H       1  UNL1        0.0647
     32 H          -5.2613    0.7985   -2.3669 H       1  UNL1        0.0655
     33 H           1.4732   -0.9217    2.4087 H       1  UNL1        0.0680
     34 H           5.5606   -0.5745    2.4502 H       1  UNL1        0.1689
     35 H           6.8487   -0.0577    0.5291 H       1  UNL1        0.0638
     36 H           6.9375    0.4454   -1.8100 H       1  UNL1        0.0618
     37 H           4.9048    0.5407   -3.1101 H       1  UNL1        0.0618
     38 H           2.7985    0.1237   -1.9982 H       1  UNL1        0.0624
@<TRIPOS>BOND
     1     1     2    2
     2     2     3    1
     3     2    14    1
     4     3     4    1
     5     4     5    1
     6     5     6    1
     7     6     7    1
     8     7     8   ar
     9     7    13   ar
    10     8     9   ar
    11     9    10   ar
    12    10    11    1
    13    10    12   ar
    14    12    13   ar
    15    14    15   ar
    16    14    24   ar
    17    15    16   ar
    18    16    17    2
    19    16    18   ar
    20    18    19   ar
    21    19    20   ar
    22    19    24   ar
    23    20    21   ar
    24    21    22   ar
    25    22    23   ar
    26    23    24   ar
    27     4    25    1
    28     4    26    1
    29     5    27    1
    30     5    28    1
    31     8    29    1
    32     9    30    1
    33    12    31    1
    34    13    32    1
    35    15    33    1
    36    18    34    1
    37    20    35    1
    38    21    36    1
    39    22    37    1
    40    23    38    1
@<TRIPOS>MOLECULE
../data/bude_mols_rdkit_confs2/molecule_27.pdb
 38 40 0 0 0
SMALL
GASTEIGER

@<TRIPOS>ATOM
      1  O1         1.8060    0.0910   -2.4480 O.2     1  UNL1       -0.2449
      2  C1         1.3650    0.2140   -1.3060 C.2     1  UNL1        0.3401
      3  O2        -0.0110    0.4190   -1.1730 O.3     1  UNL1       -0.4577
      4  C2        -0.8590    0.4810   -2.3100 C.3     1  UNL1        0.1267
      5  C3        -2.2530    0.7100   -1.7880 C.3     1  UNL1        0.1236
      6  O3        -2.6120   -0.3650   -0.9410 O.3     1  UNL1       -0.4886
      7  C4        -3.8640   -0.3690   -0.3410 C.ar    1  UNL1        0.1208
      8  C5        -4.7540    0.6660   -0.5660 C.ar    1  UNL1       -0.0172
      9  C6        -6.0170    0.7220    0.0020 C.ar    1  UNL1       -0.0230
     10  C7        -6.4060   -0.3020    0.8310 C.ar    1  UNL1        0.1236
     11  F1        -7.6070   -0.2880    1.3950 F       1  UNL1       -0.2055
     12  C8        -5.5280   -1.3560    1.0730 C.ar    1  UNL1       -0.0230
     13  C9        -4.2800   -1.3750    0.4890 C.ar    1  UNL1       -0.0172
     14  C10        2.1350    0.1670   -0.0970 C.ar    1  UNL1        0.0732
     15  C11        1.5140    0.3210    1.1590 C.ar    1  UNL1        0.0173
     16  C12        2.2150    0.2820    2.3280 C.ar    1  UNL1        0.2500
     17  O4         1.5850    0.4280    3.4080 O.2     1  UNL1       -0.2679
     18  N1         3.5380    0.0920    2.3180 N.ar    1  UNL1       -0.3221
     19  C13        4.1920   -0.0620    1.1690 C.ar    1  UNL1        0.0500
     20  C14        5.5730   -0.2550    1.2530 C.ar    1  UNL1       -0.0377
     21  C15        6.2960   -0.4190    0.0930 C.ar    1  UNL1       -0.0598
     22  C16        5.6170   -0.3840   -1.1010 C.ar    1  UNL1       -0.0611
     23  C17        4.2340   -0.1890   -1.1750 C.ar    1  UNL1       -0.0518
     24  C18        3.5060   -0.0250   -0.0240 C.ar    1  UNL1        0.0125
     25 H          -0.8144   -0.4384   -2.8556 H       1  UNL1        0.0732
     26 H          -0.5600    1.2641   -2.9750 H       1  UNL1        0.0732
     27 H          -2.9383    0.7645   -2.6079 H       1  UNL1        0.0731
     28 H          -2.2865    1.6281   -1.2395 H       1  UNL1        0.0731
     29 H          -4.4626    1.4357   -1.1886 H       1  UNL1        0.0655
     30 H          -6.6497    1.5136   -0.1931 H       1  UNL1        0.0647
     31 H          -5.8144   -2.1286    1.6944 H       1  UNL1        0.0647
     32 H          -3.6448   -2.1652    0.6816 H       1  UNL1        0.0655
     33 H           0.4932    0.4684    1.1951 H       1  UNL1        0.0680
     34 H           4.0333    0.0657    3.1684 H       1  UNL1        0.1689
     35 H           6.0442   -0.2744    2.1709 H       1  UNL1        0.0638
     36 H           7.3174   -0.5639    0.1194 H       1  UNL1        0.0618
     37 H           6.1482   -0.5064   -1.9773 H       1  UNL1        0.0618
     38 H           3.7626   -0.1686   -2.0928 H       1  UNL1        0.0624
@<TRIPOS>BOND
     1     1     2    2
     2     2     3    1
     3     2    14    1
     4     3     4    1
     5     4     5    1
     6     5     6    1
     7     6     7    1
     8     7     8   ar
     9     7    13   ar
    10     8     9   ar
    11     9    10   ar
    12    10    11    1
    13    10    12   ar
    14    12    13   ar
    15    14    15   ar
    16    14    24   ar
    17    15    16   ar
    18    16    17    2
    19    16    18   ar
    20    18    19   ar
    21    19    20   ar
    22    19    24   ar
    23    20    21   ar
    24    21    22   ar
    25    22    23   ar
    26    23    24   ar
    27     4    25    1
    28     4    26    1
    29     5    27    1
    30     5    28    1
    31     8    29    1
    32     9    30    1
    33    12    31    1
    34    13    32    1
    35    15    33    1
    36    18    34    1
    37    20    35    1
    38    21    36    1
    39    22    37    1
    40    23    38    1
@<TRIPOS>MOLECULE
../data/bude_mols_rdkit_confs2/molecule_27.pdb
 38 40 0 0 0
SMALL
GASTEIGER

@<TRIPOS>ATOM
      1  O1        -0.7540    0.7900    2.3000 O.2     1  UNL1       -0.2449
      2  C1        -1.2080    0.2930    1.2050 C.2     1  UNL1        0.3401
      3  O2        -0.2970   -0.3870    0.4680 O.3     1  UNL1       -0.4577
      4  C2         1.0640   -0.5960    0.7660 C.3     1  UNL1        0.1267
      5  C3         1.7670    0.7280    0.8140 C.3     1  UNL1        0.1236
      6  O3         3.1060    0.6830    1.0930 O.3     1  UNL1       -0.4886
      7  C4         4.1580    0.1400    0.4230 C.ar    1  UNL1        0.1208
      8  C5         4.1030   -0.5120   -0.7840 C.ar    1  UNL1       -0.0172
      9  C6         5.2380   -1.0480   -1.4080 C.ar    1  UNL1       -0.0230
     10  C7         6.4720   -0.9300   -0.8090 C.ar    1  UNL1        0.1236
     11  F1         7.6000   -1.4270   -1.3630 F       1  UNL1       -0.2055
     12  C8         6.5520   -0.2830    0.3960 C.ar    1  UNL1       -0.0230
     13  C9         5.4300    0.2340    0.9890 C.ar    1  UNL1       -0.0172
     14  C10       -2.6060    0.5390    0.9430 C.ar    1  UNL1        0.0732
     15  C11       -3.3700    1.2800    1.8600 C.ar    1  UNL1        0.0173
     16  C12       -4.7000    1.5270    1.6320 C.ar    1  UNL1        0.2500
     17  O4        -5.3650    2.1900    2.4630 O.2     1  UNL1       -0.2679
     18  N1        -5.3090    1.0760    0.5410 N.ar    1  UNL1       -0.3221
     19  C13       -4.6410    0.3570   -0.3870 C.ar    1  UNL1        0.0500
     20  C14       -5.2760   -0.1070   -1.5140 C.ar    1  UNL1       -0.0377
     21  C15       -4.6170   -0.8370   -2.4650 C.ar    1  UNL1       -0.0598
     22  C16       -3.2880   -1.0890   -2.2470 C.ar    1  UNL1       -0.0611
     23  C17       -2.6180   -0.6390   -1.1260 C.ar    1  UNL1       -0.0518
     24  C18       -3.2840    0.0950   -0.1730 C.ar    1  UNL1        0.0125
     25 H           1.5063   -1.2088    0.0085 H       1  UNL1        0.0732
     26 H           1.1537   -1.0853    1.7133 H       1  UNL1        0.0732
     27 H           1.2947    1.3230    1.5675 H       1  UNL1        0.0731
     28 H           1.6900    1.1332   -0.1733 H       1  UNL1        0.0731
     29 H           3.1882   -0.6116   -1.2512 H       1  UNL1        0.0655
     30 H           5.1487   -1.5307   -2.3158 H       1  UNL1        0.0647
     31 H           7.4673   -0.1839    0.8622 H       1  UNL1        0.0647
     32 H           5.5304    0.7153    1.8964 H       1  UNL1        0.0655
     33 H          -2.9245    1.6435    2.7170 H       1  UNL1        0.0680
     34 H          -6.2649    1.2694    0.4063 H       1  UNL1        0.1689
     35 H          -6.2781    0.1011   -1.6466 H       1  UNL1        0.0638
     36 H          -5.0995   -1.1826   -3.3092 H       1  UNL1        0.0618
     37 H          -2.7664   -1.6372   -2.9487 H       1  UNL1        0.0618
     38 H          -1.6161   -0.8540   -1.0036 H       1  UNL1        0.0624
@<TRIPOS>BOND
     1     1     2    2
     2     2     3    1
     3     2    14    1
     4     3     4    1
     5     4     5    1
     6     5     6    1
     7     6     7    1
     8     7     8   ar
     9     7    13   ar
    10     8     9   ar
    11     9    10   ar
    12    10    11    1
    13    10    12   ar
    14    12    13   ar
    15    14    15   ar
    16    14    24   ar
    17    15    16   ar
    18    16    17    2
    19    16    18   ar
    20    18    19   ar
    21    19    20   ar
    22    19    24   ar
    23    20    21   ar
    24    21    22   ar
    25    22    23   ar
    26    23    24   ar
    27     4    25    1
    28     4    26    1
    29     5    27    1
    30     5    28    1
    31     8    29    1
    32     9    30    1
    33    12    31    1
    34    13    32    1
    35    15    33    1
    36    18    34    1
    37    20    35    1
    38    21    36    1
    39    22    37    1
    40    23    38    1
@<TRIPOS>MOLECULE
../data/bude_mols_rdkit_confs2/molecule_27.pdb
 38 40 0 0 0
SMALL
GASTEIGER

@<TRIPOS>ATOM
      1  O1        -1.4180    0.8000   -1.4860 O.2     1  UNL1       -0.2449
      2  C1        -1.4220    0.2140   -0.4030 C.2     1  UNL1        0.3401
      3  O2        -0.1480    0.0040    0.1560 O.3     1  UNL1       -0.4577
      4  C2         1.0170    0.4670   -0.5460 C.3     1  UNL1        0.1267
      5  C3         2.2630    0.1500    0.2070 C.3     1  UNL1        0.1236
      6  O3         3.3730    0.6280   -0.5290 O.3     1  UNL1       -0.4886
      7  C4         4.6750    0.4660   -0.0550 C.ar    1  UNL1        0.1208
      8  C5         4.8910   -0.1680    1.1480 C.ar    1  UNL1       -0.0172
      9  C6         6.1880   -0.3290    1.6200 C.ar    1  UNL1       -0.0230
     10  C7         7.2900    0.1250    0.9250 C.ar    1  UNL1        0.1236
     11  F1         8.5350   -0.0550    1.4250 F       1  UNL1       -0.2055
     12  C8         7.0650    0.7590   -0.2770 C.ar    1  UNL1       -0.0230
     13  C9         5.7670    0.9230   -0.7550 C.ar    1  UNL1       -0.0172
     14  C10       -2.6060   -0.2370    0.2740 C.ar    1  UNL1        0.0732
     15  C11       -2.4940   -0.9040    1.5150 C.ar    1  UNL1        0.0173
     16  C12       -3.5560   -1.3650    2.2240 C.ar    1  UNL1        0.2500
     17  O4        -3.3390   -1.9500    3.3270 O.2     1  UNL1       -0.2679
     18  N1        -4.7830   -1.1970    1.7580 N.ar    1  UNL1       -0.3221
     19  C13       -4.9660   -0.5710    0.5830 C.ar    1  UNL1        0.0500
     20  C14       -6.2480   -0.4220    0.1450 C.ar    1  UNL1       -0.0377
     21  C15       -6.5010    0.2050   -1.0390 C.ar    1  UNL1       -0.0598
     22  C16       -5.4580    0.6880   -1.7910 C.ar    1  UNL1       -0.0611
     23  C17       -4.1330    0.5440   -1.3570 C.ar    1  UNL1       -0.0518
     24  C18       -3.8940   -0.0820   -0.1760 C.ar    1  UNL1        0.0125
     25 H           0.9479    1.5269   -0.6755 H       1  UNL1        0.0732
     26 H           1.0595   -0.0276   -1.4939 H       1  UNL1        0.0732
     27 H           2.3459   -0.9089    0.3362 H       1  UNL1        0.0731
     28 H           2.2357    0.6170    1.1693 H       1  UNL1        0.0731
     29 H           4.0924   -0.5224    1.6972 H       1  UNL1        0.0655
     30 H           6.3323   -0.8058    2.5238 H       1  UNL1        0.0647
     31 H           7.8628    1.1146   -0.8266 H       1  UNL1        0.0647
     32 H           5.6209    1.4001   -1.6584 H       1  UNL1        0.0655
     33 H          -1.5496   -1.0491    1.9050 H       1  UNL1        0.0680
     34 H          -5.5567   -1.5284    2.2687 H       1  UNL1        0.1689
     35 H          -7.0303   -0.7852    0.7117 H       1  UNL1        0.0638
     36 H          -7.4725    0.3163   -1.3689 H       1  UNL1        0.0618
     37 H          -5.6523    1.1627   -2.6865 H       1  UNL1        0.0618
     38 H          -3.3522    0.9076   -1.9255 H       1  UNL1        0.0624
@<TRIPOS>BOND
     1     1     2    2
     2     2     3    1
     3     2    14    1
     4     3     4    1
     5     4     5    1
     6     5     6    1
     7     6     7    1
     8     7     8   ar
     9     7    13   ar
    10     8     9   ar
    11     9    10   ar
    12    10    11    1
    13    10    12   ar
    14    12    13   ar
    15    14    15   ar
    16    14    24   ar
    17    15    16   ar
    18    16    17    2
    19    16    18   ar
    20    18    19   ar
    21    19    20   ar
    22    19    24   ar
    23    20    21   ar
    24    21    22   ar
    25    22    23   ar
    26    23    24   ar
    27     4    25    1
    28     4    26    1
    29     5    27    1
    30     5    28    1
    31     8    29    1
    32     9    30    1
    33    12    31    1
    34    13    32    1
    35    15    33    1
    36    18    34    1
    37    20    35    1
    38    21    36    1
    39    22    37    1
    40    23    38    1
@<TRIPOS>MOLECULE
../data/bude_mols_rdkit_confs2/molecule_27.pdb
 38 40 0 0 0
SMALL
GASTEIGER

@<TRIPOS>ATOM
      1  O1         1.0440    2.1610   -0.0990 O.2     1  UNL1       -0.2449
      2  C1         0.8680    1.1330    0.5670 C.2     1  UNL1        0.3401
      3  O2        -0.3830    1.0330    1.1820 O.3     1  UNL1       -0.4577
      4  C2        -1.4120    1.9930    1.0860 C.3     1  UNL1        0.1267
      5  C3        -1.8550    2.1430   -0.3470 C.3     1  UNL1        0.1236
      6  O3        -2.3460    1.0270   -0.9620 O.3     1  UNL1       -0.4886
      7  C4        -3.4050    0.2130   -0.7630 C.ar    1  UNL1        0.1208
      8  C5        -3.5440   -0.8760   -1.6430 C.ar    1  UNL1       -0.0172
      9  C6        -4.5920   -1.7590   -1.5200 C.ar    1  UNL1       -0.0230
     10  C7        -5.5070   -1.5570   -0.5170 C.ar    1  UNL1        0.1236
     11  F1        -6.5650   -2.4110   -0.3580 F       1  UNL1       -0.2055
     12  C8        -5.3820   -0.4950    0.3500 C.ar    1  UNL1       -0.0230
     13  C9        -4.3360    0.3960    0.2360 C.ar    1  UNL1       -0.0172
     14  C10        1.8030    0.0550    0.7660 C.ar    1  UNL1        0.0732
     15  C11        1.4360   -1.0570    1.5450 C.ar    1  UNL1        0.0173
     16  C12        2.2780   -2.1190    1.7720 C.ar    1  UNL1        0.2500
     17  O4         1.8420   -3.0620    2.4860 O.2     1  UNL1       -0.2679
     18  N1         3.5080   -2.1050    1.2330 N.ar    1  UNL1       -0.3221
     19  C13        3.8960   -1.0570    0.4820 C.ar    1  UNL1        0.0500
     20  C14        5.1710   -1.0520   -0.0710 C.ar    1  UNL1       -0.0377
     21  C15        5.6380   -0.0320   -0.8400 C.ar    1  UNL1       -0.0598
     22  C16        4.8270    1.0450   -1.0900 C.ar    1  UNL1       -0.0611
     23  C17        3.5340    1.0530   -0.5370 C.ar    1  UNL1       -0.0518
     24  C18        3.0570    0.0290    0.2390 C.ar    1  UNL1        0.0125
     25 H          -1.0511    2.9344    1.4443 H       1  UNL1        0.0732
     26 H          -2.2446    1.6712    1.6760 H       1  UNL1        0.0732
     27 H          -1.0112    2.4790   -0.9127 H       1  UNL1        0.0731
     28 H          -2.6765    2.8279   -0.3147 H       1  UNL1        0.0731
     29 H          -2.8486   -1.0147   -2.3928 H       1  UNL1        0.0655
     30 H          -4.6881   -2.5563   -2.1681 H       1  UNL1        0.0647
     31 H          -6.0820   -0.3638    1.0968 H       1  UNL1        0.0647
     32 H          -4.2515    1.1895    0.8904 H       1  UNL1        0.0655
     33 H           0.4933   -1.0762    1.9644 H       1  UNL1        0.0680
     34 H           4.1234   -2.8580    1.3864 H       1  UNL1        0.1689
     35 H           5.7905   -1.8574    0.1097 H       1  UNL1        0.0638
     36 H           6.5923   -0.0682   -1.2311 H       1  UNL1        0.0618
     37 H           5.1578    1.8315   -1.6705 H       1  UNL1        0.0618
     38 H           2.9203    1.8616   -0.7228 H       1  UNL1        0.0624
@<TRIPOS>BOND
     1     1     2    2
     2     2     3    1
     3     2    14    1
     4     3     4    1
     5     4     5    1
     6     5     6    1
     7     6     7    1
     8     7     8   ar
     9     7    13   ar
    10     8     9   ar
    11     9    10   ar
    12    10    11    1
    13    10    12   ar
    14    12    13   ar
    15    14    15   ar
    16    14    24   ar
    17    15    16   ar
    18    16    17    2
    19    16    18   ar
    20    18    19   ar
    21    19    20   ar
    22    19    24   ar
    23    20    21   ar
    24    21    22   ar
    25    22    23   ar
    26    23    24   ar
    27     4    25    1
    28     4    26    1
    29     5    27    1
    30     5    28    1
    31     8    29    1
    32     9    30    1
    33    12    31    1
    34    13    32    1
    35    15    33    1
    36    18    34    1
    37    20    35    1
    38    21    36    1
    39    22    37    1
    40    23    38    1
@<TRIPOS>MOLECULE
../data/bude_mols_rdkit_confs2/molecule_27.pdb
 38 40 0 0 0
SMALL
GASTEIGER

@<TRIPOS>ATOM
      1  O1        -0.7080    1.4170   -0.2010 O.2     1  UNL1       -0.2449
      2  C1        -0.6610    0.5530    0.6830 C.2     1  UNL1        0.3401
      3  O2         0.5280   -0.1870    0.7320 O.3     1  UNL1       -0.4577
      4  C2         1.5350    0.1280   -0.2190 C.3     1  UNL1        0.1267
      5  C3         2.7160   -0.7780    0.0070 C.3     1  UNL1        0.1236
      6  O3         3.7930   -0.6320   -0.8110 O.3     1  UNL1       -0.4886
      7  C4         3.9530   -0.8110   -2.1390 C.ar    1  UNL1        0.1208
      8  C5         5.2170   -0.5400   -2.6950 C.ar    1  UNL1       -0.0172
      9  C6         5.3870   -0.7210   -4.0400 C.ar    1  UNL1       -0.0230
     10  C7         4.3770   -1.1530   -4.8500 C.ar    1  UNL1        0.1236
     11  F1         4.5430   -1.3320   -6.1790 F       1  UNL1       -0.2055
     12  C8         3.1480   -1.4180   -4.3130 C.ar    1  UNL1       -0.0230
     13  C9         2.9410   -1.2440   -2.9520 C.ar    1  UNL1       -0.0172
     14  C10       -1.7260    0.2730    1.6350 C.ar    1  UNL1        0.0732
     15  C11       -1.4790   -0.6490    2.6740 C.ar    1  UNL1        0.0173
     16  C12       -2.4520   -0.9160    3.5890 C.ar    1  UNL1        0.2500
     17  O4        -2.2100   -1.7400    4.5040 O.2     1  UNL1       -0.2679
     18  N1        -3.6630   -0.3460    3.5670 N.ar    1  UNL1       -0.3221
     19  C13       -3.9340    0.5400    2.5870 C.ar    1  UNL1        0.0500
     20  C14       -5.1930    1.1020    2.5960 C.ar    1  UNL1       -0.0377
     21  C15       -5.4930    2.0050    1.6020 C.ar    1  UNL1       -0.0598
     22  C16       -4.5800    2.3420    0.6310 C.ar    1  UNL1       -0.0611
     23  C17       -3.3080    1.7610    0.6400 C.ar    1  UNL1       -0.0518
     24  C18       -2.9660    0.8520    1.6180 C.ar    1  UNL1        0.0125
     25 H           1.8360    1.1478   -0.0996 H       1  UNL1        0.0732
     26 H           1.1553   -0.0099   -1.2098 H       1  UNL1        0.0732
     27 H           2.3702   -1.7852   -0.0974 H       1  UNL1        0.0731
     28 H           3.0774   -0.5123    0.9784 H       1  UNL1        0.0731
     29 H           5.9962   -0.2129   -2.1027 H       1  UNL1        0.0655
     30 H           6.3104   -0.5242   -4.4566 H       1  UNL1        0.0647
     31 H           2.3780   -1.7458   -4.9169 H       1  UNL1        0.0647
     32 H           2.0126   -1.4436   -2.5480 H       1  UNL1        0.0655
     33 H          -0.5632   -1.1200    2.7406 H       1  UNL1        0.0680
     34 H          -4.3381   -0.5678    4.2484 H       1  UNL1        0.1689
     35 H          -5.8845    0.8547    3.3211 H       1  UNL1        0.0638
     36 H          -6.4283    2.4409    1.5850 H       1  UNL1        0.0618
     37 H          -4.8327    3.0222   -0.1028 H       1  UNL1        0.0618
     38 H          -2.6224    2.0139   -0.0887 H       1  UNL1        0.0624
@<TRIPOS>BOND
     1     1     2    2
     2     2     3    1
     3     2    14    1
     4     3     4    1
     5     4     5    1
     6     5     6    1
     7     6     7    1
     8     7     8   ar
     9     7    13   ar
    10     8     9   ar
    11     9    10   ar
    12    10    11    1
    13    10    12   ar
    14    12    13   ar
    15    14    15   ar
    16    14    24   ar
    17    15    16   ar
    18    16    17    2
    19    16    18   ar
    20    18    19   ar
    21    19    20   ar
    22    19    24   ar
    23    20    21   ar
    24    21    22   ar
    25    22    23   ar
    26    23    24   ar
    27     4    25    1
    28     4    26    1
    29     5    27    1
    30     5    28    1
    31     8    29    1
    32     9    30    1
    33    12    31    1
    34    13    32    1
    35    15    33    1
    36    18    34    1
    37    20    35    1
    38    21    36    1
    39    22    37    1
    40    23    38    1
@<TRIPOS>MOLECULE
../data/bude_mols_rdkit_confs2/molecule_27.pdb
 38 40 0 0 0
SMALL
GASTEIGER

@<TRIPOS>ATOM
      1  O1         0.1610    0.3640    1.8120 O.2     1  UNL1       -0.2449
      2  C1         1.0150    0.5130    0.8610 C.2     1  UNL1        0.3401
      3  O2         0.5730    1.2720   -0.1750 O.3     1  UNL1       -0.4577
      4  C2        -0.6780    1.8870   -0.3130 C.3     1  UNL1        0.1267
      5  C3        -1.7530    0.8420   -0.3310 C.3     1  UNL1        0.1236
      6  O3        -3.0420    1.4130   -0.4690 O.3     1  UNL1       -0.4886
      7  C4        -4.1950    0.6420   -0.5110 C.ar    1  UNL1        0.1208
      8  C5        -5.4290    1.2410   -0.6470 C.ar    1  UNL1       -0.0172
      9  C6        -6.6030    0.5140   -0.6930 C.ar    1  UNL1       -0.0230
     10  C7        -6.5580   -0.8700   -0.6000 C.ar    1  UNL1        0.1236
     11  F1        -7.7070   -1.5690   -0.6460 F       1  UNL1       -0.2055
     12  C8        -5.3340   -1.4880   -0.4640 C.ar    1  UNL1       -0.0230
     13  C9        -4.1660   -0.7360   -0.4200 C.ar    1  UNL1       -0.0172
     14  C10        2.2840   -0.1390    1.0430 C.ar    1  UNL1        0.0732
     15  C11        2.4860   -0.8720    2.2200 C.ar    1  UNL1        0.0173
     16  C12        3.6580   -1.5350    2.4990 C.ar    1  UNL1        0.2500
     17  O4         3.7880   -2.1840    3.5790 O.2     1  UNL1       -0.2679
     18  N1         4.6510   -1.4820    1.6140 N.ar    1  UNL1       -0.3221
     19  C13        4.5120   -0.7950    0.4720 C.ar    1  UNL1        0.0500
     20  C14        5.5980   -0.7950   -0.3910 C.ar    1  UNL1       -0.0377
     21  C15        5.4910   -0.1010   -1.5720 C.ar    1  UNL1       -0.0598
     22  C16        4.3300    0.5670   -1.8690 C.ar    1  UNL1       -0.0611
     23  C17        3.2380    0.5640   -0.9960 C.ar    1  UNL1       -0.0518
     24  C18        3.3430   -0.1260    0.1800 C.ar    1  UNL1        0.0125
     25 H          -0.7038    2.4402   -1.2285 H       1  UNL1        0.0732
     26 H          -0.8408    2.5501    0.5109 H       1  UNL1        0.0732
     27 H          -1.7151    0.2908    0.5853 H       1  UNL1        0.0731
     28 H          -1.5811    0.2037   -1.1724 H       1  UNL1        0.0731
     29 H          -5.4777    2.2695   -0.7170 H       1  UNL1        0.0655
     30 H          -7.5088    0.9977   -0.7960 H       1  UNL1        0.0647
     31 H          -5.2842   -2.5164   -0.3943 H       1  UNL1        0.0647
     32 H          -3.2587   -1.2169   -0.3173 H       1  UNL1        0.0655
     33 H           1.7195   -0.9164    2.9096 H       1  UNL1        0.0680
     34 H           5.4957   -1.9521    1.8004 H       1  UNL1        0.1689
     35 H           6.4639   -1.3031   -0.1522 H       1  UNL1        0.0638
     36 H           6.2823   -0.0822   -2.2343 H       1  UNL1        0.0618
     37 H           4.2610    1.0846   -2.7591 H       1  UNL1        0.0618
     38 H           2.3715    1.0715   -1.2339 H       1  UNL1        0.0624
@<TRIPOS>BOND
     1     1     2    2
     2     2     3    1
     3     2    14    1
     4     3     4    1
     5     4     5    1
     6     5     6    1
     7     6     7    1
     8     7     8   ar
     9     7    13   ar
    10     8     9   ar
    11     9    10   ar
    12    10    11    1
    13    10    12   ar
    14    12    13   ar
    15    14    15   ar
    16    14    24   ar
    17    15    16   ar
    18    16    17    2
    19    16    18   ar
    20    18    19   ar
    21    19    20   ar
    22    19    24   ar
    23    20    21   ar
    24    21    22   ar
    25    22    23   ar
    26    23    24   ar
    27     4    25    1
    28     4    26    1
    29     5    27    1
    30     5    28    1
    31     8    29    1
    32     9    30    1
    33    12    31    1
    34    13    32    1
    35    15    33    1
    36    18    34    1
    37    20    35    1
    38    21    36    1
    39    22    37    1
    40    23    38    1
@<TRIPOS>MOLECULE
../data/bude_mols_rdkit_confs2/molecule_27.pdb
 38 40 0 0 0
SMALL
GASTEIGER

@<TRIPOS>ATOM
      1  O1        -0.9560    1.3150    0.5060 O.2     1  UNL1       -0.2449
      2  C1        -1.1430    0.3430   -0.2370 C.2     1  UNL1        0.3401
      3  O2         0.0030   -0.1680   -0.8470 O.3     1  UNL1       -0.4577
      4  C2         1.3030    0.3460   -0.6630 C.3     1  UNL1        0.1267
      5  C3         1.7940    0.2880    0.7440 C.3     1  UNL1        0.1236
      6  O3         3.0610    0.7900    0.9090 O.3     1  UNL1       -0.4886
      7  C4         4.2840    0.4230    0.4620 C.ar    1  UNL1        0.1208
      8  C5         4.5400   -0.6750   -0.3190 C.ar    1  UNL1       -0.0172
      9  C6         5.8190   -1.0100   -0.7590 C.ar    1  UNL1       -0.0230
     10  C7         6.8900   -0.2230   -0.4090 C.ar    1  UNL1        0.1236
     11  F1         8.1400   -0.5110   -0.8120 F       1  UNL1       -0.2055
     12  C8         6.6830    0.8950    0.3790 C.ar    1  UNL1       -0.0230
     13  C9         5.4200    1.1880    0.7870 C.ar    1  UNL1       -0.0172
     14  C10       -2.3880   -0.3000   -0.5310 C.ar    1  UNL1        0.0732
     15  C11       -2.4530   -1.3950   -1.3880 C.ar    1  UNL1        0.0173
     16  C12       -3.6020   -2.0550   -1.7110 C.ar    1  UNL1        0.2500
     17  O4        -3.6070   -3.0480   -2.4990 O.2     1  UNL1       -0.2679
     18  N1        -4.7420   -1.6100   -1.1600 N.ar    1  UNL1       -0.3221
     19  C13       -4.7440   -0.5540   -0.3210 C.ar    1  UNL1        0.0500
     20  C14       -5.9650   -0.1700    0.1960 C.ar    1  UNL1       -0.0377
     21  C15       -6.0580    0.9040    1.0650 C.ar    1  UNL1       -0.0598
     22  C16       -4.9080    1.5660    1.3890 C.ar    1  UNL1       -0.0611
     23  C17       -3.7000    1.1700    0.8640 C.ar    1  UNL1       -0.0518
     24  C18       -3.5660    0.1170    0.0060 C.ar    1  UNL1        0.0125
     25 H           1.3061    1.3689   -0.9768 H       1  UNL1        0.0732
     26 H           1.9598   -0.2693   -1.2417 H       1  UNL1        0.0732
     27 H           1.7921   -0.7342    1.0602 H       1  UNL1        0.0731
     28 H           1.1380    0.8984    1.3288 H       1  UNL1        0.0731
     29 H           3.7502   -1.2801   -0.5930 H       1  UNL1        0.0655
     30 H           5.9616   -1.8467   -1.3460 H       1  UNL1        0.0647
     31 H           7.4751    1.4972    0.6528 H       1  UNL1        0.0647
     32 H           5.2851    2.0263    1.3735 H       1  UNL1        0.0655
     33 H          -1.5717   -1.7302   -1.8075 H       1  UNL1        0.0680
     34 H          -5.5907   -2.0618   -1.3717 H       1  UNL1        0.1689
     35 H          -6.8172   -0.6887   -0.0679 H       1  UNL1        0.0638
     36 H          -6.9677    1.1952    1.4557 H       1  UNL1        0.0618
     37 H          -4.9459    2.3709    2.0338 H       1  UNL1        0.0618
     38 H          -2.8530    1.6951    1.1321 H       1  UNL1        0.0624
@<TRIPOS>BOND
     1     1     2    2
     2     2     3    1
     3     2    14    1
     4     3     4    1
     5     4     5    1
     6     5     6    1
     7     6     7    1
     8     7     8   ar
     9     7    13   ar
    10     8     9   ar
    11     9    10   ar
    12    10    11    1
    13    10    12   ar
    14    12    13   ar
    15    14    15   ar
    16    14    24   ar
    17    15    16   ar
    18    16    17    2
    19    16    18   ar
    20    18    19   ar
    21    19    20   ar
    22    19    24   ar
    23    20    21   ar
    24    21    22   ar
    25    22    23   ar
    26    23    24   ar
    27     4    25    1
    28     4    26    1
    29     5    27    1
    30     5    28    1
    31     8    29    1
    32     9    30    1
    33    12    31    1
    34    13    32    1
    35    15    33    1
    36    18    34    1
    37    20    35    1
    38    21    36    1
    39    22    37    1
    40    23    38    1
@<TRIPOS>MOLECULE
../data/bude_mols_rdkit_confs2/molecule_27.pdb
 38 40 0 0 0
SMALL
GASTEIGER

@<TRIPOS>ATOM
      1  O1        -0.1510    0.4400   -0.1840 O.2     1  UNL1       -0.2449
      2  C1        -0.8310   -0.5290    0.1400 C.2     1  UNL1        0.3401
      3  O2        -0.1020   -1.6710    0.4940 O.3     1  UNL1       -0.4577
      4  C2         1.3060   -1.7330    0.4860 C.3     1  UNL1        0.1267
      5  C3         1.9430   -1.4900   -0.8270 C.3     1  UNL1        0.1236
      6  O3         3.3230   -1.5580   -0.7310 O.3     1  UNL1       -0.4886
      7  C4         4.0860   -0.6560   -0.0370 C.ar    1  UNL1        0.1208
      8  C5         5.4680   -0.8200    0.0630 C.ar    1  UNL1       -0.0172
      9  C6         6.2680    0.0580    0.7420 C.ar    1  UNL1       -0.0230
     10  C7         5.7430    1.1620    1.3680 C.ar    1  UNL1        0.1236
     11  F1         6.4620    2.0660    2.0520 F       1  UNL1       -0.2055
     12  C8         4.3880    1.3340    1.2760 C.ar    1  UNL1       -0.0230
     13  C9         3.5580    0.4490    0.5870 C.ar    1  UNL1       -0.0172
     14  C10       -2.2730   -0.5310    0.1670 C.ar    1  UNL1        0.0732
     15  C11       -2.9480   -1.7030    0.5830 C.ar    1  UNL1        0.0173
     16  C12       -4.3000   -1.7930    0.6420 C.ar    1  UNL1        0.2500
     17  O4        -4.8640   -2.8620    1.0200 O.2     1  UNL1       -0.2679
     18  N1        -5.0550   -0.7550    0.3010 N.ar    1  UNL1       -0.3221
     19  C13       -4.4700    0.3870   -0.1020 C.ar    1  UNL1        0.0500
     20  C14       -5.3220    1.4210   -0.4400 C.ar    1  UNL1       -0.0377
     21  C15       -4.7540    2.6000   -0.8570 C.ar    1  UNL1       -0.0598
     22  C16       -3.3950    2.7450   -0.9350 C.ar    1  UNL1       -0.0611
     23  C17       -2.5310    1.6960   -0.5920 C.ar    1  UNL1       -0.0518
     24  C18       -3.0730    0.5220   -0.1770 C.ar    1  UNL1        0.0125
     25 H           1.5957   -2.7079    0.8184 H       1  UNL1        0.0732
     26 H           1.6401   -0.9441    1.1270 H       1  UNL1        0.0732
     27 H           1.6643   -0.5177   -1.1762 H       1  UNL1        0.0731
     28 H           1.6119   -2.2438   -1.5105 H       1  UNL1        0.0731
     29 H           5.9042   -1.6363   -0.3935 H       1  UNL1        0.0655
     30 H           7.2849   -0.1125    0.7846 H       1  UNL1        0.0647
     31 H           3.9620    2.1537    1.7361 H       1  UNL1        0.0647
     32 H           2.5420    0.6251    0.5457 H       1  UNL1        0.0655
     33 H          -2.3867   -2.5257    0.8535 H       1  UNL1        0.0680
     34 H          -6.0364   -0.8210    0.3429 H       1  UNL1        0.1689
     35 H          -6.3465    1.3115   -0.3813 H       1  UNL1        0.0638
     36 H          -5.3633    3.3915   -1.1164 H       1  UNL1        0.0618
     37 H          -2.9992    3.6437   -1.2524 H       1  UNL1        0.0618
     38 H          -1.5075    1.8130   -0.6533 H       1  UNL1        0.0624
@<TRIPOS>BOND
     1     1     2    2
     2     2     3    1
     3     2    14    1
     4     3     4    1
     5     4     5    1
     6     5     6    1
     7     6     7    1
     8     7     8   ar
     9     7    13   ar
    10     8     9   ar
    11     9    10   ar
    12    10    11    1
    13    10    12   ar
    14    12    13   ar
    15    14    15   ar
    16    14    24   ar
    17    15    16   ar
    18    16    17    2
    19    16    18   ar
    20    18    19   ar
    21    19    20   ar
    22    19    24   ar
    23    20    21   ar
    24    21    22   ar
    25    22    23   ar
    26    23    24   ar
    27     4    25    1
    28     4    26    1
    29     5    27    1
    30     5    28    1
    31     8    29    1
    32     9    30    1
    33    12    31    1
    34    13    32    1
    35    15    33    1
    36    18    34    1
    37    20    35    1
    38    21    36    1
    39    22    37    1
    40    23    38    1
@<TRIPOS>MOLECULE
../data/bude_mols_rdkit_confs2/molecule_27.pdb
 38 40 0 0 0
SMALL
GASTEIGER

@<TRIPOS>ATOM
      1  O1         0.1260    1.4460    0.0960 O.2     1  UNL1       -0.2449
      2  C1        -0.8070    0.5440    0.1500 C.2     1  UNL1        0.3401
      3  O2        -0.3750   -0.7380    0.1850 O.3     1  UNL1       -0.4577
      4  C2         0.9730   -1.1400    0.1600 C.3     1  UNL1        0.1267
      5  C3         1.6410   -0.7440   -1.1210 C.3     1  UNL1        0.1236
      6  O3         2.9600   -1.0750   -1.2700 O.3     1  UNL1       -0.4886
      7  C4         4.0820   -0.7050   -0.6030 C.ar    1  UNL1        0.1208
      8  C5         4.0760    0.1770    0.4270 C.ar    1  UNL1       -0.0172
      9  C6         5.2660    0.5220    1.0840 C.ar    1  UNL1       -0.0230
     10  C7         6.4830   -0.0080    0.7220 C.ar    1  UNL1        0.1236
     11  F1         7.6300    0.3310    1.3650 F       1  UNL1       -0.2055
     12  C8         6.4830   -0.9020   -0.3240 C.ar    1  UNL1       -0.0230
     13  C9         5.3270   -1.2380   -0.9630 C.ar    1  UNL1       -0.0172
     14  C10       -2.1590    1.0640    0.1630 C.ar    1  UNL1        0.0732
     15  C11       -2.3630    2.4480    0.1180 C.ar    1  UNL1        0.0173
     16  C12       -3.6460    2.9300    0.1300 C.ar    1  UNL1        0.2500
     17  O4        -3.8620    4.1770    0.0910 O.2     1  UNL1       -0.2679
     18  N1        -4.7210    2.1380    0.1840 N.ar    1  UNL1       -0.3221
     19  C13       -4.5750    0.7930    0.2290 C.ar    1  UNL1        0.0500
     20  C14       -5.6930   -0.0080    0.2830 C.ar    1  UNL1       -0.0377
     21  C15       -5.5810   -1.3700    0.3300 C.ar    1  UNL1       -0.0598
     22  C16       -4.3110   -1.8940    0.3190 C.ar    1  UNL1       -0.0611
     23  C17       -3.1740   -1.0910    0.2630 C.ar    1  UNL1       -0.0518
     24  C18       -3.2680    0.2750    0.2170 C.ar    1  UNL1        0.0125
     25 H           1.0203   -2.2041    0.2622 H       1  UNL1        0.0732
     26 H           1.4823   -0.6565    0.9673 H       1  UNL1        0.0732
     27 H           1.5650    0.3198   -1.2075 H       1  UNL1        0.0731
     28 H           1.1312   -1.3003   -1.8796 H       1  UNL1        0.0731
     29 H           3.1849    0.5995    0.7311 H       1  UNL1        0.0655
     30 H           5.2276    1.1957    1.8648 H       1  UNL1        0.0647
     31 H           7.3732   -1.3252   -0.6298 H       1  UNL1        0.0647
     32 H           5.3703   -1.9120   -1.7433 H       1  UNL1        0.0655
     33 H          -1.5602    3.0952    0.0764 H       1  UNL1        0.0680
     34 H          -5.6223    2.5341    0.1911 H       1  UNL1        0.1689
     35 H          -6.6294    0.4257    0.2881 H       1  UNL1        0.0638
     36 H          -6.4140   -1.9777    0.3719 H       1  UNL1        0.0618
     37 H          -4.1952   -2.9189    0.3534 H       1  UNL1        0.0618
     38 H          -2.2420   -1.5341    0.2560 H       1  UNL1        0.0624
@<TRIPOS>BOND
     1     1     2    2
     2     2     3    1
     3     2    14    1
     4     3     4    1
     5     4     5    1
     6     5     6    1
     7     6     7    1
     8     7     8   ar
     9     7    13   ar
    10     8     9   ar
    11     9    10   ar
    12    10    11    1
    13    10    12   ar
    14    12    13   ar
    15    14    15   ar
    16    14    24   ar
    17    15    16   ar
    18    16    17    2
    19    16    18   ar
    20    18    19   ar
    21    19    20   ar
    22    19    24   ar
    23    20    21   ar
    24    21    22   ar
    25    22    23   ar
    26    23    24   ar
    27     4    25    1
    28     4    26    1
    29     5    27    1
    30     5    28    1
    31     8    29    1
    32     9    30    1
    33    12    31    1
    34    13    32    1
    35    15    33    1
    36    18    34    1
    37    20    35    1
    38    21    36    1
    39    22    37    1
    40    23    38    1
@<TRIPOS>MOLECULE
../data/bude_mols_rdkit_confs2/molecule_27.pdb
 38 40 0 0 0
SMALL
GASTEIGER

@<TRIPOS>ATOM
      1  O1        -0.4160    1.3990    1.1490 O.2     1  UNL1       -0.2449
      2  C1        -0.8780    0.2810    1.3140 C.2     1  UNL1        0.3401
      3  O2        -0.1450   -0.5700    2.1590 O.3     1  UNL1       -0.4577
      4  C2         1.0260   -0.0980    2.7360 C.3     1  UNL1        0.1267
      5  C3         2.0970    0.3240    1.7810 C.3     1  UNL1        0.1236
      6  O3         2.4730   -0.7740    0.9700 O.3     1  UNL1       -0.4886
      7  C4         3.4450   -0.6450    0.0070 C.ar    1  UNL1        0.1208
      8  C5         3.7650   -1.7560   -0.7500 C.ar    1  UNL1       -0.0172
      9  C6         4.7270   -1.7280   -1.7420 C.ar    1  UNL1       -0.0230
     10  C7         5.4120   -0.5540   -2.0080 C.ar    1  UNL1        0.1236
     11  F1         6.3590   -0.4990   -2.9740 F       1  UNL1       -0.2055
     12  C8         5.0880    0.5550   -1.2470 C.ar    1  UNL1       -0.0230
     13  C9         4.1290    0.5220   -0.2610 C.ar    1  UNL1       -0.0172
     14  C10       -2.0960   -0.2140    0.7150 C.ar    1  UNL1        0.0732
     15  C11       -2.5190   -1.5300    0.9910 C.ar    1  UNL1        0.0173
     16  C12       -3.6590   -1.9940    0.4310 C.ar    1  UNL1        0.2500
     17  O4        -4.0210   -3.1890    0.6960 O.2     1  UNL1       -0.2679
     18  N1        -4.4390   -1.2740   -0.3920 N.ar    1  UNL1       -0.3221
     19  C13       -4.0530   -0.0040   -0.6730 C.ar    1  UNL1        0.0500
     20  C14       -4.8420    0.7380   -1.5110 C.ar    1  UNL1       -0.0377
     21  C15       -4.5400    2.0340   -1.8590 C.ar    1  UNL1       -0.0598
     22  C16       -3.4050    2.5590   -1.3280 C.ar    1  UNL1       -0.0611
     23  C17       -2.5900    1.8200   -0.4740 C.ar    1  UNL1       -0.0518
     24  C18       -2.8940    0.5360   -0.1320 C.ar    1  UNL1        0.0125
     25 H           1.4244   -0.8756    3.3537 H       1  UNL1        0.0732
     26 H           0.7503    0.7855    3.2730 H       1  UNL1        0.0732
     27 H           2.9481    0.6682    2.3306 H       1  UNL1        0.0731
     28 H           1.7272    1.1130    1.1600 H       1  UNL1        0.0731
     29 H           3.2663   -2.6409   -0.5675 H       1  UNL1        0.0655
     30 H           4.9347   -2.5812   -2.2841 H       1  UNL1        0.0647
     31 H           5.5850    1.4416   -1.4259 H       1  UNL1        0.0647
     32 H           3.9205    1.3752    0.2809 H       1  UNL1        0.0655
     33 H          -1.9629   -2.1347    1.6156 H       1  UNL1        0.0680
     34 H          -5.2613   -1.6541   -0.7775 H       1  UNL1        0.1689
     35 H          -5.6971    0.3077   -1.8967 H       1  UNL1        0.0638
     36 H          -5.1452    2.5802   -2.4917 H       1  UNL1        0.0618
     37 H          -3.1405    3.5284   -1.5631 H       1  UNL1        0.0618
     38 H          -1.7359    2.2547   -0.0911 H       1  UNL1        0.0624
@<TRIPOS>BOND
     1     1     2    2
     2     2     3    1
     3     2    14    1
     4     3     4    1
     5     4     5    1
     6     5     6    1
     7     6     7    1
     8     7     8   ar
     9     7    13   ar
    10     8     9   ar
    11     9    10   ar
    12    10    11    1
    13    10    12   ar
    14    12    13   ar
    15    14    15   ar
    16    14    24   ar
    17    15    16   ar
    18    16    17    2
    19    16    18   ar
    20    18    19   ar
    21    19    20   ar
    22    19    24   ar
    23    20    21   ar
    24    21    22   ar
    25    22    23   ar
    26    23    24   ar
    27     4    25    1
    28     4    26    1
    29     5    27    1
    30     5    28    1
    31     8    29    1
    32     9    30    1
    33    12    31    1
    34    13    32    1
    35    15    33    1
    36    18    34    1
    37    20    35    1
    38    21    36    1
    39    22    37    1
    40    23    38    1
@<TRIPOS>MOLECULE
../data/bude_mols_rdkit_confs2/molecule_27.pdb
 38 40 0 0 0
SMALL
GASTEIGER

@<TRIPOS>ATOM
      1  O1         0.1040    1.4860    0.7600 O.2     1  UNL1       -0.2449
      2  C1         0.9090    0.5550    0.3950 C.2     1  UNL1        0.3401
      3  O2         0.3500   -0.5710   -0.1270 O.3     1  UNL1       -0.4577
      4  C2        -1.0040   -0.8540   -0.3250 C.3     1  UNL1        0.1267
      5  C3        -1.6540    0.1240   -1.2730 C.3     1  UNL1        0.1236
      6  O3        -2.9820   -0.0760   -1.5270 O.3     1  UNL1       -0.4886
      7  C4        -4.1070   -0.0660   -0.7770 C.ar    1  UNL1        0.1208
      8  C5        -4.1980    0.1910    0.5700 C.ar    1  UNL1       -0.0172
      9  C6        -5.4070    0.1710    1.2350 C.ar    1  UNL1       -0.0230
     10  C7        -6.5520   -0.1140    0.5260 C.ar    1  UNL1        0.1236
     11  F1        -7.7410   -0.1420    1.1400 F       1  UNL1       -0.2055
     12  C8        -6.5180   -0.3790   -0.8280 C.ar    1  UNL1       -0.0230
     13  C9        -5.3010   -0.3510   -1.4590 C.ar    1  UNL1       -0.0172
     14  C10        2.3140    0.7800    0.5720 C.ar    1  UNL1        0.0732
     15  C11        2.6860    1.8750    1.3660 C.ar    1  UNL1        0.0173
     16  C12        4.0100    2.1260    1.6030 C.ar    1  UNL1        0.2500
     17  O4         4.2930    3.1340    2.3320 O.2     1  UNL1       -0.2679
     18  N1         4.9530    1.3460    1.0890 N.ar    1  UNL1       -0.3221
     19  C13        4.6620    0.2760    0.3150 C.ar    1  UNL1        0.0500
     20  C14        5.6680   -0.5070   -0.2090 C.ar    1  UNL1       -0.0377
     21  C15        5.3120   -1.5760   -0.9960 C.ar    1  UNL1       -0.0598
     22  C16        4.0170   -1.8950   -1.2820 C.ar    1  UNL1       -0.0611
     23  C17        3.0050   -1.0880   -0.7410 C.ar    1  UNL1       -0.0518
     24  C18        3.3140   -0.0040    0.0560 C.ar    1  UNL1        0.0125
     25 H          -1.5079   -0.8079    0.6178 H       1  UNL1        0.0732
     26 H          -1.0776   -1.8305   -0.7563 H       1  UNL1        0.0732
     27 H          -1.1315    0.0718   -2.2053 H       1  UNL1        0.0731
     28 H          -1.5946    1.0762   -0.7885 H       1  UNL1        0.0731
     29 H          -3.3381    0.4049    1.0990 H       1  UNL1        0.0655
     30 H          -5.4520    0.3665    2.2473 H       1  UNL1        0.0647
     31 H          -7.3825   -0.5918   -1.3498 H       1  UNL1        0.0647
     32 H          -5.2611   -0.5464   -2.4715 H       1  UNL1        0.0655
     33 H           1.9626    2.4899    1.7705 H       1  UNL1        0.0680
     34 H           5.8967    1.5536    1.2777 H       1  UNL1        0.1689
     35 H           6.6597   -0.2967   -0.0160 H       1  UNL1        0.0638
     36 H           6.0612   -2.1663   -1.3899 H       1  UNL1        0.0618
     37 H           3.7886   -2.7056   -1.8784 H       1  UNL1        0.0618
     38 H           2.0167   -1.3075   -0.9414 H       1  UNL1        0.0624
@<TRIPOS>BOND
     1     1     2    2
     2     2     3    1
     3     2    14    1
     4     3     4    1
     5     4     5    1
     6     5     6    1
     7     6     7    1
     8     7     8   ar
     9     7    13   ar
    10     8     9   ar
    11     9    10   ar
    12    10    11    1
    13    10    12   ar
    14    12    13   ar
    15    14    15   ar
    16    14    24   ar
    17    15    16   ar
    18    16    17    2
    19    16    18   ar
    20    18    19   ar
    21    19    20   ar
    22    19    24   ar
    23    20    21   ar
    24    21    22   ar
    25    22    23   ar
    26    23    24   ar
    27     4    25    1
    28     4    26    1
    29     5    27    1
    30     5    28    1
    31     8    29    1
    32     9    30    1
    33    12    31    1
    34    13    32    1
    35    15    33    1
    36    18    34    1
    37    20    35    1
    38    21    36    1
    39    22    37    1
    40    23    38    1
@<TRIPOS>MOLECULE
../data/bude_mols_rdkit_confs2/molecule_27.pdb
 38 40 0 0 0
SMALL
GASTEIGER

@<TRIPOS>ATOM
      1  O1        -0.2300    1.7030    1.6810 O.2     1  UNL1       -0.2449
      2  C1        -0.9640    1.0010    0.8970 C.2     1  UNL1        0.3401
      3  O2        -0.2990    0.5770   -0.2000 O.3     1  UNL1       -0.4577
      4  C2         1.0440    0.8330   -0.5180 C.3     1  UNL1        0.1267
      5  C3         1.5110    0.2430   -1.7870 C.3     1  UNL1        0.1236
      6  O3         2.8390    0.5150   -2.0530 O.3     1  UNL1       -0.4886
      7  C4         3.9930    0.1840   -1.4340 C.ar    1  UNL1        0.1208
      8  C5         4.0790   -0.5880   -0.3190 C.ar    1  UNL1       -0.0172
      9  C6         5.2960   -0.9000    0.2880 C.ar    1  UNL1       -0.0230
     10  C7         6.4690   -0.4250   -0.2350 C.ar    1  UNL1        0.1236
     11  F1         7.6730   -0.7200    0.3460 F       1  UNL1       -0.2055
     12  C8         6.4190    0.3500   -1.3500 C.ar    1  UNL1       -0.0230
     13  C9         5.2200    0.6530   -1.9420 C.ar    1  UNL1       -0.0172
     14  C10       -2.3300    0.7940    1.3110 C.ar    1  UNL1        0.0732
     15  C11       -2.7280    1.3650    2.5090 C.ar    1  UNL1        0.0173
     16  C12       -3.9980    1.2430    3.0150 C.ar    1  UNL1        0.2500
     17  O4        -4.3240    1.7820    4.1180 O.2     1  UNL1       -0.2679
     18  N1        -4.8770    0.5390    2.3090 N.ar    1  UNL1       -0.3221
     19  C13       -4.5370   -0.0320    1.1420 C.ar    1  UNL1        0.0500
     20  C14       -5.4760   -0.7670    0.4160 C.ar    1  UNL1       -0.0377
     21  C15       -5.1330   -1.3560   -0.7810 C.ar    1  UNL1       -0.0598
     22  C16       -3.8610   -1.2340   -1.2890 C.ar    1  UNL1       -0.0611
     23  C17       -2.9260   -0.5110   -0.5800 C.ar    1  UNL1       -0.0518
     24  C18       -3.2740    0.0710    0.6070 C.ar    1  UNL1        0.0125
     25 H           1.6516    0.4434    0.2719 H       1  UNL1        0.0732
     26 H           1.1251    1.8935   -0.6352 H       1  UNL1        0.0732
     27 H           0.9161    0.6360   -2.5849 H       1  UNL1        0.0731
     28 H           1.4131   -0.8190   -1.7010 H       1  UNL1        0.0731
     29 H           3.2094   -0.9583    0.0954 H       1  UNL1        0.0655
     30 H           5.3121   -1.4908    1.1340 H       1  UNL1        0.0647
     31 H           7.2945    0.7151   -1.7564 H       1  UNL1        0.0647
     32 H           5.2165    1.2443   -2.7878 H       1  UNL1        0.0655
     33 H          -2.0355    1.9088    3.0473 H       1  UNL1        0.0680
     34 H          -5.7952    0.4341    2.6482 H       1  UNL1        0.1689
     35 H          -6.4363   -0.8700    0.7796 H       1  UNL1        0.0638
     36 H          -5.8402   -1.8961   -1.3036 H       1  UNL1        0.0618
     37 H          -3.6104   -1.6768   -2.1869 H       1  UNL1        0.0618
     38 H          -1.9658   -0.4093   -0.9442 H       1  UNL1        0.0624
@<TRIPOS>BOND
     1     1     2    2
     2     2     3    1
     3     2    14    1
     4     3     4    1
     5     4     5    1
     6     5     6    1
     7     6     7    1
     8     7     8   ar
     9     7    13   ar
    10     8     9   ar
    11     9    10   ar
    12    10    11    1
    13    10    12   ar
    14    12    13   ar
    15    14    15   ar
    16    14    24   ar
    17    15    16   ar
    18    16    17    2
    19    16    18   ar
    20    18    19   ar
    21    19    20   ar
    22    19    24   ar
    23    20    21   ar
    24    21    22   ar
    25    22    23   ar
    26    23    24   ar
    27     4    25    1
    28     4    26    1
    29     5    27    1
    30     5    28    1
    31     8    29    1
    32     9    30    1
    33    12    31    1
    34    13    32    1
    35    15    33    1
    36    18    34    1
    37    20    35    1
    38    21    36    1
    39    22    37    1
    40    23    38    1
@<TRIPOS>MOLECULE
../data/bude_mols_rdkit_confs2/molecule_27.pdb
 38 40 0 0 0
SMALL
GASTEIGER

@<TRIPOS>ATOM
      1  O1         0.0390    1.0820    2.5740 O.2     1  UNL1       -0.2449
      2  C1        -0.5340    1.0160    1.4230 C.2     1  UNL1        0.3401
      3  O2        -0.0620    1.9060    0.5090 O.3     1  UNL1       -0.4577
      4  C2         0.9420    2.8140    0.7590 C.3     1  UNL1        0.1267
      5  C3         2.3060    2.2750    1.0840 C.3     1  UNL1        0.1236
      6  O3         2.9590    1.5350    0.2100 O.3     1  UNL1       -0.4886
      7  C4         3.1110    0.4840   -0.5530 C.ar    1  UNL1        0.1208
      8  C5         2.1850   -0.5450   -0.6240 C.ar    1  UNL1       -0.0172
      9  C6         2.4510   -1.6020   -1.4630 C.ar    1  UNL1       -0.0230
     10  C7         3.5940   -1.6710   -2.2260 C.ar    1  UNL1        0.1236
     11  F1         3.8620   -2.7080   -3.0530 F       1  UNL1       -0.2055
     12  C8         4.5280   -0.6560   -2.1670 C.ar    1  UNL1       -0.0230
     13  C9         4.2780    0.3970   -1.3410 C.ar    1  UNL1       -0.0172
     14  C10       -1.5660    0.0230    1.3010 C.ar    1  UNL1        0.0732
     15  C11       -1.8790   -0.7880    2.4010 C.ar    1  UNL1        0.0173
     16  C12       -2.8450   -1.7570    2.3720 C.ar    1  UNL1        0.2500
     17  O4        -3.1140   -2.4820    3.3790 O.2     1  UNL1       -0.2679
     18  N1        -3.5310   -1.9430    1.2340 N.ar    1  UNL1       -0.3221
     19  C13       -3.2960   -1.2050    0.1230 C.ar    1  UNL1        0.0500
     20  C14       -4.0170   -1.4190   -1.0310 C.ar    1  UNL1       -0.0377
     21  C15       -3.7990   -0.6870   -2.1710 C.ar    1  UNL1       -0.0598
     22  C16       -2.8380    0.2740   -2.1340 C.ar    1  UNL1       -0.0611
     23  C17       -2.0950    0.5070   -0.9730 C.ar    1  UNL1       -0.0518
     24  C18       -2.3050   -0.2200    0.1710 C.ar    1  UNL1        0.0125
     25 H           0.6302    3.4151    1.5875 H       1  UNL1        0.0732
     26 H           1.0709    3.3361   -0.1660 H       1  UNL1        0.0732
     27 H           2.1985    1.6820    1.9681 H       1  UNL1        0.0731
     28 H           2.9054    3.1591    1.1460 H       1  UNL1        0.0731
     29 H           1.3195   -0.5188   -0.0626 H       1  UNL1        0.0655
     30 H           1.7673   -2.3727   -1.5225 H       1  UNL1        0.0647
     31 H           5.3904   -0.6943   -2.7325 H       1  UNL1        0.0647
     32 H           4.9693    1.1615   -1.2893 H       1  UNL1        0.0655
     33 H          -1.3537   -0.6469    3.2780 H       1  UNL1        0.0680
     34 H          -4.2275   -2.6382    1.2057 H       1  UNL1        0.1689
     35 H          -4.7432   -2.1522   -1.0385 H       1  UNL1        0.0638
     36 H          -4.3466   -0.8603   -3.0284 H       1  UNL1        0.0618
     37 H          -2.6541    0.8407   -2.9767 H       1  UNL1        0.0618
     38 H          -1.3717    1.2431   -0.9767 H       1  UNL1        0.0624
@<TRIPOS>BOND
     1     1     2    2
     2     2     3    1
     3     2    14    1
     4     3     4    1
     5     4     5    1
     6     5     6    1
     7     6     7    1
     8     7     8   ar
     9     7    13   ar
    10     8     9   ar
    11     9    10   ar
    12    10    11    1
    13    10    12   ar
    14    12    13   ar
    15    14    15   ar
    16    14    24   ar
    17    15    16   ar
    18    16    17    2
    19    16    18   ar
    20    18    19   ar
    21    19    20   ar
    22    19    24   ar
    23    20    21   ar
    24    21    22   ar
    25    22    23   ar
    26    23    24   ar
    27     4    25    1
    28     4    26    1
    29     5    27    1
    30     5    28    1
    31     8    29    1
    32     9    30    1
    33    12    31    1
    34    13    32    1
    35    15    33    1
    36    18    34    1
    37    20    35    1
    38    21    36    1
    39    22    37    1
    40    23    38    1
@<TRIPOS>MOLECULE
../data/bude_mols_rdkit_confs2/molecule_27.pdb
 38 40 0 0 0
SMALL
GASTEIGER

@<TRIPOS>ATOM
      1  O1         1.6820   -2.1370    0.9850 O.2     1  UNL1       -0.2449
      2  C1         1.3580   -0.9870    0.7030 C.2     1  UNL1        0.3401
      3  O2        -0.0150   -0.7220    0.7550 O.3     1  UNL1       -0.4577
      4  C2        -0.9320   -1.7610    1.1190 C.3     1  UNL1        0.1267
      5  C3        -2.3280   -1.2450    1.1050 C.3     1  UNL1        0.1236
      6  O3        -2.7320   -0.7600   -0.1530 O.3     1  UNL1       -0.4886
      7  C4        -4.0180   -0.2500   -0.2980 C.ar    1  UNL1        0.1208
      8  C5        -4.4690    0.2390   -1.5070 C.ar    1  UNL1       -0.0172
      9  C6        -5.7420    0.7390   -1.6290 C.ar    1  UNL1       -0.0230
     10  C7        -6.6090    0.7690   -0.5510 C.ar    1  UNL1        0.1236
     11  F1        -7.8680    1.2570   -0.6500 F       1  UNL1       -0.2055
     12  C8        -6.1720    0.2830    0.6650 C.ar    1  UNL1       -0.0230
     13  C9        -4.8920   -0.2140    0.7680 C.ar    1  UNL1       -0.0172
     14  C10        2.2560    0.0860    0.3330 C.ar    1  UNL1        0.0732
     15  C11        1.7350    1.3580    0.0360 C.ar    1  UNL1        0.0173
     16  C12        2.4840    2.4270   -0.3200 C.ar    1  UNL1        0.2500
     17  O4         1.9840    3.5730   -0.5850 O.2     1  UNL1       -0.2679
     18  N1         3.8120    2.2920   -0.4030 N.ar    1  UNL1       -0.3221
     19  C13        4.3800    1.0840   -0.1280 C.ar    1  UNL1        0.0500
     20  C14        5.7630    1.0040   -0.2310 C.ar    1  UNL1       -0.0377
     21  C15        6.3900   -0.1940    0.0360 C.ar    1  UNL1       -0.0598
     22  C16        5.6300   -1.2800    0.3980 C.ar    1  UNL1       -0.0611
     23  C17        4.2360   -1.2090    0.5040 C.ar    1  UNL1       -0.0518
     24  C18        3.6330   -0.0230    0.2380 C.ar    1  UNL1        0.0125
     25 H          -0.6953   -2.1127    2.1015 H       1  UNL1        0.0732
     26 H          -0.8493   -2.5615    0.4138 H       1  UNL1        0.0732
     27 H          -2.4023   -0.4484    1.8155 H       1  UNL1        0.0731
     28 H          -2.9704   -2.0653    1.3485 H       1  UNL1        0.0731
     29 H          -3.8433    0.2288   -2.3276 H       1  UNL1        0.0655
     30 H          -6.0584    1.0995   -2.5427 H       1  UNL1        0.0647
     31 H          -6.7967    0.2921    1.4864 H       1  UNL1        0.0647
     32 H          -4.5735   -0.5746    1.6810 H       1  UNL1        0.0655
     33 H           0.7124    1.4846    0.0935 H       1  UNL1        0.0680
     34 H           4.3741    3.0582   -0.6604 H       1  UNL1        0.1689
     35 H           6.3147    1.8322   -0.5043 H       1  UNL1        0.0638
     36 H           7.4164   -0.2743   -0.0350 H       1  UNL1        0.0618
     37 H           6.1016   -2.1759    0.5980 H       1  UNL1        0.0618
     38 H           3.6822   -2.0359    0.7769 H       1  UNL1        0.0624
@<TRIPOS>BOND
     1     1     2    2
     2     2     3    1
     3     2    14    1
     4     3     4    1
     5     4     5    1
     6     5     6    1
     7     6     7    1
     8     7     8   ar
     9     7    13   ar
    10     8     9   ar
    11     9    10   ar
    12    10    11    1
    13    10    12   ar
    14    12    13   ar
    15    14    15   ar
    16    14    24   ar
    17    15    16   ar
    18    16    17    2
    19    16    18   ar
    20    18    19   ar
    21    19    20   ar
    22    19    24   ar
    23    20    21   ar
    24    21    22   ar
    25    22    23   ar
    26    23    24   ar
    27     4    25    1
    28     4    26    1
    29     5    27    1
    30     5    28    1
    31     8    29    1
    32     9    30    1
    33    12    31    1
    34    13    32    1
    35    15    33    1
    36    18    34    1
    37    20    35    1
    38    21    36    1
    39    22    37    1
    40    23    38    1
@<TRIPOS>MOLECULE
../data/bude_mols_rdkit_confs2/molecule_27.pdb
 38 40 0 0 0
SMALL
GASTEIGER

@<TRIPOS>ATOM
      1  O1        -0.6510    0.3260    1.0300 O.2     1  UNL1       -0.2449
      2  C1        -1.1810   -0.6400    0.4800 C.2     1  UNL1        0.3401
      3  O2        -0.3570   -1.7930    0.4700 O.3     1  UNL1       -0.4577
      4  C2         0.9220   -1.8300    1.0230 C.3     1  UNL1        0.1267
      5  C3         1.9020   -0.8600    0.4030 C.3     1  UNL1        0.1236
      6  O3         3.1470   -1.0460    1.0960 O.3     1  UNL1       -0.4886
      7  C4         4.2410   -0.2660    0.7210 C.ar    1  UNL1        0.1208
      8  C5         5.4360   -0.4380    1.3790 C.ar    1  UNL1       -0.0172
      9  C6         6.5450    0.3030    1.0490 C.ar    1  UNL1       -0.0230
     10  C7         6.5050    1.2480    0.0460 C.ar    1  UNL1        0.1236
     11  F1         7.6190    1.9630   -0.2530 F       1  UNL1       -0.2055
     12  C8         5.3070    1.4250   -0.6180 C.ar    1  UNL1       -0.0230
     13  C9         4.1840    0.6680   -0.2780 C.ar    1  UNL1       -0.0172
     14  C10       -2.4750   -0.7580   -0.1320 C.ar    1  UNL1        0.0732
     15  C11       -2.8750   -1.9810   -0.7060 C.ar    1  UNL1        0.0173
     16  C12       -4.0950   -2.0710   -1.2760 C.ar    1  UNL1        0.2500
     17  O4        -4.4410   -3.1840   -1.7910 O.2     1  UNL1       -0.2679
     18  N1        -4.9710   -1.0720   -1.3400 N.ar    1  UNL1       -0.3221
     19  C13       -4.6440    0.1200   -0.8080 C.ar    1  UNL1        0.0500
     20  C14       -5.5510    1.1560   -0.8740 C.ar    1  UNL1       -0.0377
     21  C15       -5.2120    2.3700   -0.3300 C.ar    1  UNL1       -0.0598
     22  C16       -3.9910    2.5620    0.2740 C.ar    1  UNL1       -0.0611
     23  C17       -3.0770    1.5190    0.3410 C.ar    1  UNL1       -0.0518
     24  C18       -3.3900    0.2900   -0.1970 C.ar    1  UNL1        0.0125
     25 H           1.3098   -2.8199    0.9020 H       1  UNL1        0.0732
     26 H           0.8182   -1.5435    2.0487 H       1  UNL1        0.0732
     27 H           1.5563    0.1451    0.5257 H       1  UNL1        0.0731
     28 H           2.0114   -1.0355   -0.6468 H       1  UNL1        0.0731
     29 H           5.5012   -1.1371    2.1353 H       1  UNL1        0.0655
     30 H           7.4266    0.1489    1.5629 H       1  UNL1        0.0647
     31 H           5.2411    2.1245   -1.3739 H       1  UNL1        0.0647
     32 H           3.2984    0.8148   -0.7872 H       1  UNL1        0.0655
     33 H          -2.2435   -2.7971   -0.6908 H       1  UNL1        0.0680
     34 H          -5.8466   -1.2029   -1.7707 H       1  UNL1        0.1689
     35 H          -6.4695    1.0212   -1.3248 H       1  UNL1        0.0638
     36 H          -5.8844    3.1516   -0.3749 H       1  UNL1        0.0618
     37 H          -3.7543    3.4818    0.6776 H       1  UNL1        0.0618
     38 H          -2.1616    1.6647    0.7946 H       1  UNL1        0.0624
@<TRIPOS>BOND
     1     1     2    2
     2     2     3    1
     3     2    14    1
     4     3     4    1
     5     4     5    1
     6     5     6    1
     7     6     7    1
     8     7     8   ar
     9     7    13   ar
    10     8     9   ar
    11     9    10   ar
    12    10    11    1
    13    10    12   ar
    14    12    13   ar
    15    14    15   ar
    16    14    24   ar
    17    15    16   ar
    18    16    17    2
    19    16    18   ar
    20    18    19   ar
    21    19    20   ar
    22    19    24   ar
    23    20    21   ar
    24    21    22   ar
    25    22    23   ar
    26    23    24   ar
    27     4    25    1
    28     4    26    1
    29     5    27    1
    30     5    28    1
    31     8    29    1
    32     9    30    1
    33    12    31    1
    34    13    32    1
    35    15    33    1
    36    18    34    1
    37    20    35    1
    38    21    36    1
    39    22    37    1
    40    23    38    1
@<TRIPOS>MOLECULE
../data/bude_mols_rdkit_confs2/molecule_27.pdb
 38 40 0 0 0
SMALL
GASTEIGER

@<TRIPOS>ATOM
      1  O1        -0.3690   -1.7990   -1.4720 O.2     1  UNL1       -0.2449
      2  C1        -0.8890   -0.6390   -1.2610 C.2     1  UNL1        0.3401
      3  O2        -0.1540    0.3960   -1.7350 O.3     1  UNL1       -0.4577
      4  C2         1.0740    0.3010   -2.4070 C.3     1  UNL1        0.1267
      5  C3         2.1470   -0.3520   -1.6020 C.3     1  UNL1        0.1236
      6  O3         2.4310    0.3330   -0.4010 O.3     1  UNL1       -0.4886
      7  C4         3.3990   -0.1220    0.4790 C.ar    1  UNL1        0.1208
      8  C5         4.1060   -1.2670    0.1850 C.ar    1  UNL1       -0.0172
      9  C6         5.0840   -1.7690    1.0240 C.ar    1  UNL1       -0.0230
     10  C7         5.3690   -1.1100    2.1970 C.ar    1  UNL1        0.1236
     11  F1         6.3260   -1.6170    3.0000 F       1  UNL1       -0.2055
     12  C8         4.6740    0.0420    2.5180 C.ar    1  UNL1       -0.0230
     13  C9         3.7030    0.5190    1.6590 C.ar    1  UNL1       -0.0172
     14  C10       -2.1560   -0.5940   -0.5630 C.ar    1  UNL1        0.0732
     15  C11       -2.7580   -1.7920   -0.1510 C.ar    1  UNL1        0.0173
     16  C12       -3.9540   -1.8000    0.5100 C.ar    1  UNL1        0.2500
     17  O4        -4.5020   -2.8850    0.8840 O.2     1  UNL1       -0.2679
     18  N1        -4.6120   -0.6770    0.7990 N.ar    1  UNL1       -0.3221
     19  C13       -4.0790    0.4810    0.4290 C.ar    1  UNL1        0.0500
     20  C14       -4.7700    1.6340    0.7350 C.ar    1  UNL1       -0.0377
     21  C15       -4.2900    2.8740    0.3880 C.ar    1  UNL1       -0.0598
     22  C16       -3.0880    2.9100   -0.2790 C.ar    1  UNL1       -0.0611
     23  C17       -2.3680    1.7560   -0.6010 C.ar    1  UNL1       -0.0518
     24  C18       -2.8630    0.5370   -0.2470 C.ar    1  UNL1        0.0125
     25 H           1.3968    1.2886   -2.6629 H       1  UNL1        0.0732
     26 H           0.9128   -0.3111   -3.2697 H       1  UNL1        0.0732
     27 H           3.0393   -0.3909   -2.1913 H       1  UNL1        0.0731
     28 H           1.7990   -1.3288   -1.3382 H       1  UNL1        0.0731
     29 H           3.8984   -1.7682   -0.6929 H       1  UNL1        0.0655
     30 H           5.5949   -2.6296    0.7724 H       1  UNL1        0.0647
     31 H           4.8801    0.5434    3.3961 H       1  UNL1        0.0647
     32 H           3.1912    1.3797    1.9087 H       1  UNL1        0.0655
     33 H          -2.2869   -2.6880   -0.3517 H       1  UNL1        0.0680
     34 H          -5.4730   -0.7060    1.2756 H       1  UNL1        0.1689
     35 H          -5.6692    1.5642    1.2366 H       1  UNL1        0.0638
     36 H          -4.8071    3.7372    0.6171 H       1  UNL1        0.0618
     37 H          -2.7016    3.8268   -0.5531 H       1  UNL1        0.0618
     38 H          -1.4689    1.8267   -1.1027 H       1  UNL1        0.0624
@<TRIPOS>BOND
     1     1     2    2
     2     2     3    1
     3     2    14    1
     4     3     4    1
     5     4     5    1
     6     5     6    1
     7     6     7    1
     8     7     8   ar
     9     7    13   ar
    10     8     9   ar
    11     9    10   ar
    12    10    11    1
    13    10    12   ar
    14    12    13   ar
    15    14    15   ar
    16    14    24   ar
    17    15    16   ar
    18    16    17    2
    19    16    18   ar
    20    18    19   ar
    21    19    20   ar
    22    19    24   ar
    23    20    21   ar
    24    21    22   ar
    25    22    23   ar
    26    23    24   ar
    27     4    25    1
    28     4    26    1
    29     5    27    1
    30     5    28    1
    31     8    29    1
    32     9    30    1
    33    12    31    1
    34    13    32    1
    35    15    33    1
    36    18    34    1
    37    20    35    1
    38    21    36    1
    39    22    37    1
    40    23    38    1
