@<TRIPOS>MOLECULE
../data/bude_mols_rdkit_confs2/molecule_95.pdb
 44 46 0 0 0
SMALL
GASTEIGER

@<TRIPOS>ATOM
      1  O1         4.1930    0.7020    1.6030 O.2     1  UNL1       -0.2687
      2  C1         4.4760   -0.0460    0.6030 C.2     1  UNL1        0.2602
      3  N1         3.4170   -0.3670   -0.2450 N.am    1  UNL1       -0.2301
      4  N2         2.0930    0.0880   -0.0470 N.am    1  UNL1       -0.2301
      5  C2         1.3270    0.7210   -1.0560 C.2     1  UNL1        0.2602
      6  O2         1.9140    0.8610   -2.1860 O.2     1  UNL1       -0.2687
      7  C3        -0.0280    1.2030   -0.8910 C.ar    1  UNL1        0.0400
      8  C4        -0.6170    1.9290   -1.9030 C.ar    1  UNL1       -0.0495
      9  C5        -1.9180    2.4090   -1.7800 C.ar    1  UNL1       -0.0592
     10  C6        -2.6160    2.1340   -0.5970 C.ar    1  UNL1       -0.0350
     11  C7        -2.0470    1.4130    0.4200 C.ar    1  UNL1        0.1092
     12  S1        -2.8970    1.0560    1.8820 S.O2    1  UNL1        0.0724
     13  O3        -3.9440    2.1040    2.2290 O.2     1  UNL1       -0.1500
     14  O4        -1.9480    1.0400    3.0770 O.2     1  UNL1       -0.1500
     15  N3        -3.6830   -0.4670    1.8700 N.pl3   1  UNL1       -0.2135
     16  C8        -4.6910   -0.7370    0.9320 C.ar    1  UNL1        0.0831
     17  C9        -5.4570    0.2180    0.3250 C.ar    1  UNL1       -0.0365
     18  C10       -6.4630   -0.0710   -0.6030 C.ar    1  UNL1       -0.0598
     19  C11       -6.7020   -1.3860   -0.9290 C.ar    1  UNL1       -0.0589
     20  C12       -5.9480   -2.3720   -0.3360 C.ar    1  UNL1       -0.0246
     21  C13       -4.9640   -2.0560    0.5740 C.ar    1  UNL1        0.1456
     22  F1        -4.2180   -3.0230    1.1560 F       1  UNL1       -0.2035
     23  C14       -0.7320    0.9460    0.2600 C.ar    1  UNL1       -0.0229
     24  C15        5.8620   -0.4710    0.4640 C.ar    1  UNL1        0.0410
     25  C16        6.2280   -1.3680   -0.5120 C.ar    1  UNL1       -0.0314
     26  C17        7.5210   -1.7990   -0.6970 C.ar    1  UNL1        0.0283
     27  N4         8.4740   -1.3240    0.1120 N.ar    1  UNL1       -0.2632
     28  C18        8.1430   -0.4350    1.0880 C.ar    1  UNL1        0.0283
     29  C19        6.8580    0.0100    1.2920 C.ar    1  UNL1       -0.0314
     30 H           3.6009   -0.9412   -1.0233 H       1  UNL1        0.1731
     31 H           1.6823   -0.0420    0.8383 H       1  UNL1        0.1731
     32 H          -0.0850    2.1201   -2.7664 H       1  UNL1        0.0625
     33 H          -2.3563    2.9527   -2.5398 H       1  UNL1        0.0618
     34 H          -3.5813    2.4825   -0.4888 H       1  UNL1        0.0637
     35 H          -3.4259   -1.1559    2.5246 H       1  UNL1        0.1738
     36 H          -5.2838    1.2068    0.5644 H       1  UNL1        0.0637
     37 H          -7.0148    0.6869   -1.0344 H       1  UNL1        0.0618
     38 H          -7.4380   -1.6298   -1.6101 H       1  UNL1        0.0618
     39 H          -6.1219   -3.3605   -0.5760 H       1  UNL1        0.0647
     40 H          -0.2890    0.4026    1.0173 H       1  UNL1        0.0645
     41 H           5.4949   -1.7367   -1.1378 H       1  UNL1        0.0640
     42 H           7.7505   -2.4738   -1.4433 H       1  UNL1        0.0830
     43 H           8.8909   -0.0785    1.7033 H       1  UNL1        0.0830
     44 H           6.6435    0.6847    2.0429 H       1  UNL1        0.0640
@<TRIPOS>BOND
     1     1     2    2
     2     2     3   am
     3     2    24    1
     4     3     4    1
     5     4     5   am
     6     5     6    2
     7     5     7    1
     8     7     8   ar
     9     7    23   ar
    10     8     9   ar
    11     9    10   ar
    12    10    11   ar
    13    11    12    1
    14    11    23   ar
    15    12    13    2
    16    12    14    2
    17    12    15    1
    18    15    16    1
    19    16    17   ar
    20    16    21   ar
    21    17    18   ar
    22    18    19   ar
    23    19    20   ar
    24    20    21   ar
    25    21    22    1
    26    24    25   ar
    27    24    29   ar
    28    25    26   ar
    29    26    27   ar
    30    27    28   ar
    31    28    29   ar
    32     3    30    1
    33     4    31    1
    34     8    32    1
    35     9    33    1
    36    10    34    1
    37    15    35    1
    38    17    36    1
    39    18    37    1
    40    19    38    1
    41    20    39    1
    42    23    40    1
    43    25    41    1
    44    26    42    1
    45    28    43    1
    46    29    44    1
@<TRIPOS>MOLECULE
../data/bude_mols_rdkit_confs2/molecule_95.pdb
 44 46 0 0 0
SMALL
GASTEIGER

@<TRIPOS>ATOM
      1  O1        -3.7900    1.2720   -0.2060 O.2     1  UNL1       -0.2687
      2  C1        -3.7580    0.1580   -0.8060 C.2     1  UNL1        0.2602
      3  N1        -2.4820   -0.4620   -0.8580 N.am    1  UNL1       -0.2301
      4  N2        -1.3200    0.1060   -0.2880 N.am    1  UNL1       -0.2301
      5  C2        -1.1350    0.1890    1.1100 C.2     1  UNL1        0.2602
      6  O2        -2.0780   -0.2780    1.8190 O.2     1  UNL1       -0.2687
      7  C3         0.0440    0.7620    1.7540 C.ar    1  UNL1        0.0400
      8  C4         0.0670    0.8140    3.1350 C.ar    1  UNL1       -0.0495
      9  C5         1.1440    1.3380    3.8120 C.ar    1  UNL1       -0.0592
     10  C6         2.2060    1.8130    3.0770 C.ar    1  UNL1       -0.0350
     11  C7         2.2060    1.7720    1.6830 C.ar    1  UNL1        0.1092
     12  S1         3.6090    2.4070    0.8460 S.O2    1  UNL1        0.0724
     13  O3         4.2190    3.5230    1.6900 O.2     1  UNL1       -0.1500
     14  O4         3.2790    3.0000   -0.4800 O.2     1  UNL1       -0.1500
     15  N3         4.7670    1.1440    0.7250 N.pl3   1  UNL1       -0.2135
     16  C8         4.5020   -0.0500    0.0230 C.ar    1  UNL1        0.0831
     17  C9         3.5920   -0.0540   -0.9900 C.ar    1  UNL1       -0.0365
     18  C10        3.3410   -1.2140   -1.6820 C.ar    1  UNL1       -0.0598
     19  C11        3.9690   -2.4130   -1.4100 C.ar    1  UNL1       -0.0589
     20  C12        4.8880   -2.3860   -0.3800 C.ar    1  UNL1       -0.0246
     21  C13        5.1570   -1.2400    0.3260 C.ar    1  UNL1        0.1456
     22  F1         6.0670   -1.2400    1.3370 F       1  UNL1       -0.2035
     23  C14        1.1150    1.2430    1.0360 C.ar    1  UNL1       -0.0229
     24  C15       -4.9560   -0.4270   -1.3920 C.ar    1  UNL1        0.0410
     25  C16       -4.9880   -1.6280   -2.0240 C.ar    1  UNL1       -0.0314
     26  C17       -6.1990   -2.0530   -2.5310 C.ar    1  UNL1        0.0283
     27  N4        -7.3420   -1.3550   -2.4370 N.ar    1  UNL1       -0.2632
     28  C18       -7.3260   -0.1620   -1.8130 C.ar    1  UNL1        0.0283
     29  C19       -6.1330    0.3000   -1.2910 C.ar    1  UNL1       -0.0314
     30 H          -2.4025   -1.3310   -1.3138 H       1  UNL1        0.1731
     31 H          -0.6179    0.4545   -0.8837 H       1  UNL1        0.1731
     32 H          -0.7392    0.4528    3.6685 H       1  UNL1        0.0625
     33 H           1.1551    1.3739    4.8433 H       1  UNL1        0.0618
     34 H           3.0220    2.2091    3.5692 H       1  UNL1        0.0637
     35 H           5.6432    1.2573    1.1594 H       1  UNL1        0.1738
     36 H           3.0913    0.8137   -1.2377 H       1  UNL1        0.0637
     37 H           2.6467   -1.1877   -2.4451 H       1  UNL1        0.0618
     38 H           3.7648   -3.2734   -1.9419 H       1  UNL1        0.0618
     39 H           5.3882   -3.2543   -0.1333 H       1  UNL1        0.0647
     40 H           1.0988    1.2062    0.0048 H       1  UNL1        0.0645
     41 H          -4.1366   -2.2030   -2.1218 H       1  UNL1        0.0640
     42 H          -6.2279   -2.9651   -3.0129 H       1  UNL1        0.0830
     43 H          -8.1890    0.3971   -1.7262 H       1  UNL1        0.0830
     44 H          -6.1172    1.2137   -0.8114 H       1  UNL1        0.0640
@<TRIPOS>BOND
     1     1     2    2
     2     2     3   am
     3     2    24    1
     4     3     4    1
     5     4     5   am
     6     5     6    2
     7     5     7    1
     8     7     8   ar
     9     7    23   ar
    10     8     9   ar
    11     9    10   ar
    12    10    11   ar
    13    11    12    1
    14    11    23   ar
    15    12    13    2
    16    12    14    2
    17    12    15    1
    18    15    16    1
    19    16    17   ar
    20    16    21   ar
    21    17    18   ar
    22    18    19   ar
    23    19    20   ar
    24    20    21   ar
    25    21    22    1
    26    24    25   ar
    27    24    29   ar
    28    25    26   ar
    29    26    27   ar
    30    27    28   ar
    31    28    29   ar
    32     3    30    1
    33     4    31    1
    34     8    32    1
    35     9    33    1
    36    10    34    1
    37    15    35    1
    38    17    36    1
    39    18    37    1
    40    19    38    1
    41    20    39    1
    42    23    40    1
    43    25    41    1
    44    26    42    1
    45    28    43    1
    46    29    44    1
@<TRIPOS>MOLECULE
../data/bude_mols_rdkit_confs2/molecule_95.pdb
 44 46 0 0 0
SMALL
GASTEIGER

@<TRIPOS>ATOM
      1  O1        -2.5900    0.2410   -1.8270 O.2     1  UNL1       -0.2687
      2  C1        -3.5240    0.0250   -0.9940 C.2     1  UNL1        0.2602
      3  N1        -3.1580    0.0220    0.3570 N.am    1  UNL1       -0.2301
      4  N2        -1.8850    0.2330    0.8780 N.am    1  UNL1       -0.2301
      5  C2        -1.1770   -0.6290    1.7330 C.2     1  UNL1        0.2602
      6  O2        -1.7440   -1.7010    2.0630 O.2     1  UNL1       -0.2687
      7  C3         0.1500   -0.3650    2.2540 C.ar    1  UNL1        0.0400
      8  C4         0.6150   -1.0630    3.3280 C.ar    1  UNL1       -0.0495
      9  C5         1.8710   -0.7940    3.8300 C.ar    1  UNL1       -0.0592
     10  C6         2.6440    0.1890    3.2260 C.ar    1  UNL1       -0.0350
     11  C7         2.1800    0.8900    2.1480 C.ar    1  UNL1        0.1092
     12  S1         3.1470    2.1560    1.4400 S.O2    1  UNL1        0.0724
     13  O3         2.2600    2.9160    0.4680 O.2     1  UNL1       -0.1500
     14  O4         3.5280    3.0890    2.5540 O.2     1  UNL1       -0.1500
     15  N3         4.4920    1.4970    0.6390 N.pl3   1  UNL1       -0.2135
     16  C8         4.3630    0.6180   -0.4550 C.ar    1  UNL1        0.0831
     17  C9         3.2010    0.3810   -1.1070 C.ar    1  UNL1       -0.0365
     18  C10        3.1250   -0.4920   -2.1850 C.ar    1  UNL1       -0.0598
     19  C11        4.2560   -1.1420   -2.6170 C.ar    1  UNL1       -0.0589
     20  C12        5.4450   -0.9110   -1.9660 C.ar    1  UNL1       -0.0246
     21  C13        5.5120   -0.0400   -0.8910 C.ar    1  UNL1        0.1456
     22  F1         6.6650    0.1980   -0.2440 F       1  UNL1       -0.2035
     23  C14        0.9170    0.5970    1.6690 C.ar    1  UNL1       -0.0229
     24  C15       -4.8720   -0.1980   -1.4910 C.ar    1  UNL1        0.0410
     25  C16       -5.8650   -0.6850   -0.6590 C.ar    1  UNL1       -0.0314
     26  C17       -7.1630   -0.8920   -1.1250 C.ar    1  UNL1        0.0283
     27  N4        -7.4640   -0.6180   -2.4000 N.ar    1  UNL1       -0.2632
     28  C18       -6.5330   -0.1450   -3.2400 C.ar    1  UNL1        0.0283
     29  C19       -5.2240    0.0710   -2.7950 C.ar    1  UNL1       -0.0314
     30 H          -3.8773   -0.1473    1.0075 H       1  UNL1        0.1731
     31 H          -1.4350    1.0704    0.6219 H       1  UNL1        0.1731
     32 H           0.0286   -1.7913    3.7647 H       1  UNL1        0.0625
     33 H           2.2317   -1.3163    4.6437 H       1  UNL1        0.0618
     34 H           3.5848    0.3938    3.5973 H       1  UNL1        0.0637
     35 H           5.3944    1.7378    0.9502 H       1  UNL1        0.1738
     36 H           2.3445    0.8639   -0.7936 H       1  UNL1        0.0637
     37 H           2.2226   -0.6517   -2.6595 H       1  UNL1        0.0618
     38 H           4.2138   -1.7928   -3.4168 H       1  UNL1        0.0618
     39 H           6.3002   -1.3938   -2.2831 H       1  UNL1        0.0647
     40 H           0.5493    1.1150    0.8556 H       1  UNL1        0.0645
     41 H          -5.6406   -0.8991    0.3253 H       1  UNL1        0.0640
     42 H          -7.8895   -1.2555   -0.4885 H       1  UNL1        0.0830
     43 H          -6.7827    0.0610   -4.2199 H       1  UNL1        0.0830
     44 H          -4.5152    0.4356   -3.4506 H       1  UNL1        0.0640
@<TRIPOS>BOND
     1     1     2    2
     2     2     3   am
     3     2    24    1
     4     3     4    1
     5     4     5   am
     6     5     6    2
     7     5     7    1
     8     7     8   ar
     9     7    23   ar
    10     8     9   ar
    11     9    10   ar
    12    10    11   ar
    13    11    12    1
    14    11    23   ar
    15    12    13    2
    16    12    14    2
    17    12    15    1
    18    15    16    1
    19    16    17   ar
    20    16    21   ar
    21    17    18   ar
    22    18    19   ar
    23    19    20   ar
    24    20    21   ar
    25    21    22    1
    26    24    25   ar
    27    24    29   ar
    28    25    26   ar
    29    26    27   ar
    30    27    28   ar
    31    28    29   ar
    32     3    30    1
    33     4    31    1
    34     8    32    1
    35     9    33    1
    36    10    34    1
    37    15    35    1
    38    17    36    1
    39    18    37    1
    40    19    38    1
    41    20    39    1
    42    23    40    1
    43    25    41    1
    44    26    42    1
    45    28    43    1
    46    29    44    1
@<TRIPOS>MOLECULE
../data/bude_mols_rdkit_confs2/molecule_95.pdb
 44 46 0 0 0
SMALL
GASTEIGER

@<TRIPOS>ATOM
      1  O1         4.1800   -1.3260    0.6270 O.2     1  UNL1       -0.2687
      2  C1         4.3970   -0.1190    0.3550 C.2     1  UNL1        0.2602
      3  N1         3.2590    0.7020    0.1340 N.am    1  UNL1       -0.2301
      4  N2         1.9510    0.1860    0.2160 N.am    1  UNL1       -0.2301
      5  C2         1.3640   -0.5150   -0.8640 C.2     1  UNL1        0.2602
      6  O2         2.1250   -0.6270   -1.8910 O.2     1  UNL1       -0.2687
      7  C3         0.0310   -1.0730   -0.8600 C.ar    1  UNL1        0.0400
      8  C4        -0.4230   -1.7120   -1.9860 C.ar    1  UNL1       -0.0495
      9  C5        -1.7110   -2.2630   -2.0180 C.ar    1  UNL1       -0.0592
     10  C6        -2.5230   -2.1600   -0.9020 C.ar    1  UNL1       -0.0350
     11  C7        -2.0650   -1.5250    0.2100 C.ar    1  UNL1        0.1092
     12  S1        -3.0000   -1.3180    1.6880 S.O2    1  UNL1        0.0724
     13  O3        -2.0790   -1.3980    2.8730 O.2     1  UNL1       -0.1500
     14  O4        -3.9990   -2.4460    1.7080 O.2     1  UNL1       -0.1500
     15  N3        -3.7530    0.2230    1.6820 N.pl3   1  UNL1       -0.2135
     16  C8        -4.7030    0.6600    0.7290 C.ar    1  UNL1        0.0831
     17  C9        -5.3820   -0.2660   -0.0160 C.ar    1  UNL1       -0.0365
     18  C10       -6.3290    0.1670   -0.9530 C.ar    1  UNL1       -0.0598
     19  C11       -6.5460    1.5200   -1.0910 C.ar    1  UNL1       -0.0589
     20  C12       -5.8440    2.4430   -0.3220 C.ar    1  UNL1       -0.0246
     21  C13       -4.9180    2.0210    0.5930 C.ar    1  UNL1        0.1456
     22  F1        -4.2340    2.9130    1.3420 F       1  UNL1       -0.2035
     23  C14       -0.7700   -0.9760    0.2280 C.ar    1  UNL1       -0.0229
     24  C15        5.7450    0.3910    0.2750 C.ar    1  UNL1        0.0410
     25  C16        6.0700    1.6780   -0.0380 C.ar    1  UNL1       -0.0314
     26  C17        7.3990    2.0730   -0.0900 C.ar    1  UNL1        0.0283
     27  N4         8.3850    1.2030    0.1650 N.ar    1  UNL1       -0.2632
     28  C18        8.1010   -0.0680    0.4760 C.ar    1  UNL1        0.0283
     29  C19        6.8060   -0.4740    0.5320 C.ar    1  UNL1       -0.0314
     30 H           3.3876    1.6540   -0.0815 H       1  UNL1        0.1731
     31 H           1.4335    0.3160    1.0434 H       1  UNL1        0.1731
     32 H           0.1878   -1.7873   -2.8144 H       1  UNL1        0.0625
     33 H          -2.0512   -2.7416   -2.8666 H       1  UNL1        0.0618
     34 H          -3.4727   -2.5636   -0.9136 H       1  UNL1        0.0637
     35 H          -3.5049    0.8523    2.3973 H       1  UNL1        0.1738
     36 H          -5.1980   -1.2735    0.1114 H       1  UNL1        0.0637
     37 H          -6.8523   -0.5125   -1.5270 H       1  UNL1        0.0618
     38 H          -7.2410    1.8550   -1.7764 H       1  UNL1        0.0618
     39 H          -6.0228    3.4522   -0.4424 H       1  UNL1        0.0647
     40 H          -0.4281   -0.4964    1.0754 H       1  UNL1        0.0645
     41 H           5.3232    2.3619   -0.2373 H       1  UNL1        0.0640
     42 H           7.6309    3.0500   -0.3283 H       1  UNL1        0.0830
     43 H           8.8626   -0.7362    0.6723 H       1  UNL1        0.0830
     44 H           6.6014   -1.4564    0.7731 H       1  UNL1        0.0640
@<TRIPOS>BOND
     1     1     2    2
     2     2     3   am
     3     2    24    1
     4     3     4    1
     5     4     5   am
     6     5     6    2
     7     5     7    1
     8     7     8   ar
     9     7    23   ar
    10     8     9   ar
    11     9    10   ar
    12    10    11   ar
    13    11    12    1
    14    11    23   ar
    15    12    13    2
    16    12    14    2
    17    12    15    1
    18    15    16    1
    19    16    17   ar
    20    16    21   ar
    21    17    18   ar
    22    18    19   ar
    23    19    20   ar
    24    20    21   ar
    25    21    22    1
    26    24    25   ar
    27    24    29   ar
    28    25    26   ar
    29    26    27   ar
    30    27    28   ar
    31    28    29   ar
    32     3    30    1
    33     4    31    1
    34     8    32    1
    35     9    33    1
    36    10    34    1
    37    15    35    1
    38    17    36    1
    39    18    37    1
    40    19    38    1
    41    20    39    1
    42    23    40    1
    43    25    41    1
    44    26    42    1
    45    28    43    1
    46    29    44    1
@<TRIPOS>MOLECULE
../data/bude_mols_rdkit_confs2/molecule_95.pdb
 44 46 0 0 0
SMALL
GASTEIGER

@<TRIPOS>ATOM
      1  O1        -2.9630   -0.3630   -1.3990 O.2     1  UNL1       -0.2687
      2  C1        -3.3770    0.4930   -0.5640 C.2     1  UNL1        0.2602
      3  N1        -2.5720    0.7430    0.5720 N.am    1  UNL1       -0.2301
      4  N2        -1.3530    0.0760    0.7860 N.am    1  UNL1       -0.2301
      5  C2        -1.2990   -1.3350    0.9610 C.2     1  UNL1        0.2602
      6  O2        -2.3790   -1.9780    0.9230 O.2     1  UNL1       -0.2687
      7  C3        -0.0090   -1.9770    1.1760 C.ar    1  UNL1        0.0400
      8  C4         0.2160   -2.6560    2.3550 C.ar    1  UNL1       -0.0495
      9  C5         1.4470   -3.2700    2.5300 C.ar    1  UNL1       -0.0592
     10  C6         2.4230   -3.2090    1.5570 C.ar    1  UNL1       -0.0350
     11  C7         2.2060   -2.5230    0.3560 C.ar    1  UNL1        0.1092
     12  S1         3.3850   -2.4350   -0.9060 S.O2    1  UNL1        0.0724
     13  O3         4.1310   -3.7540   -0.9970 O.2     1  UNL1       -0.1500
     14  O4         2.6390   -2.2280   -2.2170 O.2     1  UNL1       -0.1500
     15  N3         4.5320   -1.1830   -0.6880 N.pl3   1  UNL1       -0.2135
     16  C8         4.2230    0.1990   -0.6360 C.ar    1  UNL1        0.0831
     17  C9         3.0780    0.7050   -1.1840 C.ar    1  UNL1       -0.0365
     18  C10        2.7500    2.0510   -1.1630 C.ar    1  UNL1       -0.0598
     19  C11        3.6280    2.9310   -0.5530 C.ar    1  UNL1       -0.0589
     20  C12        4.8030    2.4570    0.0150 C.ar    1  UNL1       -0.0246
     21  C13        5.0800    1.1150   -0.0330 C.ar    1  UNL1        0.1456
     22  F1         6.2340    0.6590    0.5250 F       1  UNL1       -0.2035
     23  C14        0.9840   -1.9180    0.1930 C.ar    1  UNL1       -0.0229
     24  C15       -4.6280    1.2040   -0.7480 C.ar    1  UNL1        0.0410
     25  C16       -5.1960    1.9830    0.2290 C.ar    1  UNL1       -0.0314
     26  C17       -6.3840    2.6500    0.0040 C.ar    1  UNL1        0.0283
     27  N4        -6.9690    2.5150   -1.1980 N.ar    1  UNL1       -0.2632
     28  C18       -6.4430    1.7560   -2.1930 C.ar    1  UNL1        0.0283
     29  C19       -5.2610    1.0880   -1.9770 C.ar    1  UNL1       -0.0314
     30 H          -2.8751    1.4055    1.2342 H       1  UNL1        0.1731
     31 H          -0.5181    0.5969    0.8154 H       1  UNL1        0.1731
     32 H          -0.5108   -2.7058    3.0860 H       1  UNL1        0.0625
     33 H           1.6367   -3.7827    3.4053 H       1  UNL1        0.0618
     34 H           3.3287   -3.6771    1.7171 H       1  UNL1        0.0637
     35 H           5.4768   -1.4425   -0.5916 H       1  UNL1        0.1738
     36 H           2.4226    0.0496   -1.6377 H       1  UNL1        0.0637
     37 H           1.8739    2.3890   -1.5910 H       1  UNL1        0.0618
     38 H           3.4091    3.9390   -0.5205 H       1  UNL1        0.0618
     39 H           5.4618    3.1088    0.4691 H       1  UNL1        0.0647
     40 H           0.7927   -1.4043   -0.6813 H       1  UNL1        0.0645
     41 H          -4.7285    2.0715    1.1448 H       1  UNL1        0.0640
     42 H          -6.8107    3.2359    0.7387 H       1  UNL1        0.0830
     43 H          -6.9254    1.6812   -3.1022 H       1  UNL1        0.0830
     44 H          -4.8483    0.5056   -2.7223 H       1  UNL1        0.0640
@<TRIPOS>BOND
     1     1     2    2
     2     2     3   am
     3     2    24    1
     4     3     4    1
     5     4     5   am
     6     5     6    2
     7     5     7    1
     8     7     8   ar
     9     7    23   ar
    10     8     9   ar
    11     9    10   ar
    12    10    11   ar
    13    11    12    1
    14    11    23   ar
    15    12    13    2
    16    12    14    2
    17    12    15    1
    18    15    16    1
    19    16    17   ar
    20    16    21   ar
    21    17    18   ar
    22    18    19   ar
    23    19    20   ar
    24    20    21   ar
    25    21    22    1
    26    24    25   ar
    27    24    29   ar
    28    25    26   ar
    29    26    27   ar
    30    27    28   ar
    31    28    29   ar
    32     3    30    1
    33     4    31    1
    34     8    32    1
    35     9    33    1
    36    10    34    1
    37    15    35    1
    38    17    36    1
    39    18    37    1
    40    19    38    1
    41    20    39    1
    42    23    40    1
    43    25    41    1
    44    26    42    1
    45    28    43    1
    46    29    44    1
@<TRIPOS>MOLECULE
../data/bude_mols_rdkit_confs2/molecule_95.pdb
 44 46 0 0 0
SMALL
GASTEIGER

@<TRIPOS>ATOM
      1  O1         3.9470    1.1640    1.1740 O.2     1  UNL1       -0.2687
      2  C1         4.5520    0.3840    0.3460 C.2     1  UNL1        0.2602
      3  N1         3.7190   -0.3730   -0.4770 N.am    1  UNL1       -0.2301
      4  N2         2.3360   -0.4040   -0.5360 N.am    1  UNL1       -0.2301
      5  C2         1.6250   -0.6310    0.6670 C.2     1  UNL1        0.2602
      6  O2         2.2240   -0.7840    1.7580 O.2     1  UNL1       -0.2687
      7  C3         0.1560   -0.6990    0.6580 C.ar    1  UNL1        0.0400
      8  C4        -0.5360   -0.8980    1.8490 C.ar    1  UNL1       -0.0495
      9  C5        -1.9190   -1.0110    1.8570 C.ar    1  UNL1       -0.0592
     10  C6        -2.6050   -0.9240    0.6650 C.ar    1  UNL1       -0.0350
     11  C7        -1.9730   -0.7280   -0.5400 C.ar    1  UNL1        0.1092
     12  S1        -2.8760   -0.6960   -2.0350 S.O2    1  UNL1        0.0724
     13  O3        -3.5020   -2.0060   -2.3620 O.2     1  UNL1       -0.1500
     14  O4        -1.8710   -0.4400   -3.1490 O.2     1  UNL1       -0.1500
     15  N3        -3.9620    0.6160   -1.9890 N.pl3   1  UNL1       -0.2135
     16  C8        -5.0010    0.7470   -1.0300 C.ar    1  UNL1        0.0831
     17  C9        -5.0550    1.7140   -0.0570 C.ar    1  UNL1       -0.0365
     18  C10       -6.1200    1.7790    0.8460 C.ar    1  UNL1       -0.0598
     19  C11       -7.1520    0.8520    0.7650 C.ar    1  UNL1       -0.0589
     20  C12       -7.1220   -0.1280   -0.2040 C.ar    1  UNL1       -0.0246
     21  C13       -6.0430   -0.1490   -1.0720 C.ar    1  UNL1        0.1456
     22  F1        -6.0080   -1.1090   -2.0180 F       1  UNL1       -0.2035
     23  C14       -0.5870   -0.6190   -0.5040 C.ar    1  UNL1       -0.0229
     24  C15        6.0020    0.3480    0.3290 C.ar    1  UNL1        0.0410
     25  C16        6.7020    1.2580    1.0800 C.ar    1  UNL1       -0.0314
     26  C17        8.0800    1.2200    1.0310 C.ar    1  UNL1        0.0283
     27  N4         8.7490    0.3250    0.2770 N.ar    1  UNL1       -0.2632
     28  C18        8.0700   -0.5580   -0.4480 C.ar    1  UNL1        0.0283
     29  C19        6.7010   -0.5720   -0.4430 C.ar    1  UNL1       -0.0314
     30 H           4.1809   -0.9720   -1.1072 H       1  UNL1        0.1731
     31 H           1.8616   -0.2722   -1.3885 H       1  UNL1        0.1731
     32 H          -0.0142   -0.9623    2.7370 H       1  UNL1        0.0625
     33 H          -2.4268   -1.1581    2.7433 H       1  UNL1        0.0618
     34 H          -3.6334   -1.0093    0.6774 H       1  UNL1        0.0637
     35 H          -3.8635    1.3239   -2.6661 H       1  UNL1        0.1738
     36 H          -4.2935    2.4073    0.0091 H       1  UNL1        0.0637
     37 H          -6.1398    2.5134    1.5708 H       1  UNL1        0.0618
     38 H          -7.9402    0.8972    1.4297 H       1  UNL1        0.0618
     39 H          -7.8799   -0.8243   -0.2803 H       1  UNL1        0.0647
     40 H          -0.0861   -0.4702   -1.3940 H       1  UNL1        0.0645
     41 H           6.2112    1.9518    1.6654 H       1  UNL1        0.0640
     42 H           8.6173    1.9003    1.5909 H       1  UNL1        0.0830
     43 H           8.5828   -1.2439   -1.0238 H       1  UNL1        0.0830
     44 H           6.1891   -1.2646   -1.0116 H       1  UNL1        0.0640
@<TRIPOS>BOND
     1     1     2    2
     2     2     3   am
     3     2    24    1
     4     3     4    1
     5     4     5   am
     6     5     6    2
     7     5     7    1
     8     7     8   ar
     9     7    23   ar
    10     8     9   ar
    11     9    10   ar
    12    10    11   ar
    13    11    12    1
    14    11    23   ar
    15    12    13    2
    16    12    14    2
    17    12    15    1
    18    15    16    1
    19    16    17   ar
    20    16    21   ar
    21    17    18   ar
    22    18    19   ar
    23    19    20   ar
    24    20    21   ar
    25    21    22    1
    26    24    25   ar
    27    24    29   ar
    28    25    26   ar
    29    26    27   ar
    30    27    28   ar
    31    28    29   ar
    32     3    30    1
    33     4    31    1
    34     8    32    1
    35     9    33    1
    36    10    34    1
    37    15    35    1
    38    17    36    1
    39    18    37    1
    40    19    38    1
    41    20    39    1
    42    23    40    1
    43    25    41    1
    44    26    42    1
    45    28    43    1
    46    29    44    1
@<TRIPOS>MOLECULE
../data/bude_mols_rdkit_confs2/molecule_95.pdb
 44 46 0 0 0
SMALL
GASTEIGER

@<TRIPOS>ATOM
      1  O1        -4.5860    1.2530   -0.4570 O.2     1  UNL1       -0.2687
      2  C1        -4.4990    0.0630    0.0300 C.2     1  UNL1        0.2602
      3  N1        -3.2900   -0.3000    0.6220 N.am    1  UNL1       -0.2301
      4  N2        -2.1740    0.5210    0.7330 N.am    1  UNL1       -0.2301
      5  C2        -1.2560    0.8220   -0.3000 C.2     1  UNL1        0.2602
      6  O2        -1.4250    0.3250   -1.4390 O.2     1  UNL1       -0.2687
      7  C3        -0.1210    1.7140    0.0000 C.ar    1  UNL1        0.0400
      8  C4        -0.3350    2.8980    0.7200 C.ar    1  UNL1       -0.0495
      9  C5         0.6960    3.7290    1.0390 C.ar    1  UNL1       -0.0592
     10  C6         1.9830    3.4170    0.6540 C.ar    1  UNL1       -0.0350
     11  C7         2.2260    2.2460   -0.0620 C.ar    1  UNL1        0.1092
     12  S1         3.8990    1.8590   -0.5020 S.O2    1  UNL1        0.0724
     13  O3         4.7250    3.1010   -0.5430 O.2     1  UNL1       -0.1500
     14  O4         3.9100    1.2230   -1.8570 O.2     1  UNL1       -0.1500
     15  N3         4.5510    0.8210    0.6920 N.pl3   1  UNL1       -0.2135
     16  C8         4.9350   -0.4930    0.3760 C.ar    1  UNL1        0.0831
     17  C9         6.2900   -0.7260    0.1120 C.ar    1  UNL1       -0.0365
     18  C10        6.7210   -2.0200   -0.1590 C.ar    1  UNL1       -0.0598
     19  C11        5.8750   -3.0870   -0.1790 C.ar    1  UNL1       -0.0589
     20  C12        4.5140   -2.8800    0.0820 C.ar    1  UNL1       -0.0246
     21  C13        4.0980   -1.5790    0.3510 C.ar    1  UNL1        0.1456
     22  F1         2.7600   -1.3570    0.5870 F       1  UNL1       -0.2035
     23  C14        1.1740    1.4190   -0.3750 C.ar    1  UNL1       -0.0229
     24  C15       -5.6750   -0.8060   -0.0750 C.ar    1  UNL1        0.0410
     25  C16       -5.6840   -2.1120    0.3520 C.ar    1  UNL1       -0.0314
     26  C17       -6.8190   -2.9120    0.2600 C.ar    1  UNL1        0.0283
     27  N4        -7.9690   -2.4290   -0.2590 N.ar    1  UNL1       -0.2632
     28  C18       -7.9740   -1.1540   -0.6820 C.ar    1  UNL1        0.0283
     29  C19       -6.8670   -0.3360   -0.6050 C.ar    1  UNL1       -0.0314
     30 H          -3.2213   -1.2103    0.9907 H       1  UNL1        0.1731
     31 H          -2.0070    0.9311    1.6123 H       1  UNL1        0.1731
     32 H          -1.2929    3.1448    1.0141 H       1  UNL1        0.0625
     33 H           0.5135    4.5947    1.5704 H       1  UNL1        0.0618
     34 H           2.7632    4.0481    0.8951 H       1  UNL1        0.0637
     35 H           4.6586    1.1494    1.6139 H       1  UNL1        0.1738
     36 H           6.9633    0.0561    0.1185 H       1  UNL1        0.0637
     37 H           7.7222   -2.1781   -0.3528 H       1  UNL1        0.0618
     38 H           6.2310   -4.0339   -0.3833 H       1  UNL1        0.0618
     39 H           3.8435   -3.6645    0.0751 H       1  UNL1        0.0647
     40 H           1.3575    0.5530   -0.9054 H       1  UNL1        0.0645
     41 H          -4.8218   -2.5123    0.7537 H       1  UNL1        0.0640
     42 H          -6.7817   -3.8881    0.5930 H       1  UNL1        0.0830
     43 H          -8.8444   -0.7701   -1.0820 H       1  UNL1        0.0830
     44 H          -6.9261    0.6364   -0.9454 H       1  UNL1        0.0640
@<TRIPOS>BOND
     1     1     2    2
     2     2     3   am
     3     2    24    1
     4     3     4    1
     5     4     5   am
     6     5     6    2
     7     5     7    1
     8     7     8   ar
     9     7    23   ar
    10     8     9   ar
    11     9    10   ar
    12    10    11   ar
    13    11    12    1
    14    11    23   ar
    15    12    13    2
    16    12    14    2
    17    12    15    1
    18    15    16    1
    19    16    17   ar
    20    16    21   ar
    21    17    18   ar
    22    18    19   ar
    23    19    20   ar
    24    20    21   ar
    25    21    22    1
    26    24    25   ar
    27    24    29   ar
    28    25    26   ar
    29    26    27   ar
    30    27    28   ar
    31    28    29   ar
    32     3    30    1
    33     4    31    1
    34     8    32    1
    35     9    33    1
    36    10    34    1
    37    15    35    1
    38    17    36    1
    39    18    37    1
    40    19    38    1
    41    20    39    1
    42    23    40    1
    43    25    41    1
    44    26    42    1
    45    28    43    1
    46    29    44    1
@<TRIPOS>MOLECULE
../data/bude_mols_rdkit_confs2/molecule_95.pdb
 44 46 0 0 0
SMALL
GASTEIGER

@<TRIPOS>ATOM
      1  O1        -4.2280    0.3400   -1.2910 O.2     1  UNL1       -0.2687
      2  C1        -4.2800    0.2240   -0.0280 C.2     1  UNL1        0.2602
      3  N1        -3.0490   -0.0970    0.5990 N.am    1  UNL1       -0.2301
      4  N2        -1.8410   -0.2790   -0.0840 N.am    1  UNL1       -0.2301
      5  C2        -1.2390    0.6880   -0.9200 C.2     1  UNL1        0.2602
      6  O2        -1.8350    1.7840   -1.0510 O.2     1  UNL1       -0.2687
      7  C3         0.0150    0.4910   -1.6310 C.ar    1  UNL1        0.0400
      8  C4         0.2660    1.3060   -2.7170 C.ar    1  UNL1       -0.0495
      9  C5         1.4340    1.1560   -3.4210 C.ar    1  UNL1       -0.0592
     10  C6         2.3310    0.1910   -3.0250 C.ar    1  UNL1       -0.0350
     11  C7         2.1190   -0.6430   -1.9490 C.ar    1  UNL1        0.1092
     12  S1         3.2810   -1.8430   -1.5580 S.O2    1  UNL1        0.0724
     13  O3         2.6470   -2.8940   -0.6340 O.2     1  UNL1       -0.1500
     14  O4         3.6750   -2.6580   -2.7900 O.2     1  UNL1       -0.1500
     15  N3         4.7000   -1.3130   -0.7940 N.pl3   1  UNL1       -0.2135
     16  C8         4.8520   -0.6760    0.4430 C.ar    1  UNL1        0.0831
     17  C9         3.8270   -0.0840    1.1300 C.ar    1  UNL1       -0.0365
     18  C10        4.0780    0.5310    2.3520 C.ar    1  UNL1       -0.0598
     19  C11        5.3320    0.5810    2.9280 C.ar    1  UNL1       -0.0589
     20  C12        6.3720   -0.0170    2.2350 C.ar    1  UNL1       -0.0246
     21  C13        6.1200   -0.6250    1.0270 C.ar    1  UNL1        0.1456
     22  F1         7.1620   -1.2040    0.3780 F       1  UNL1       -0.2035
     23  C14        0.9380   -0.4680   -1.2620 C.ar    1  UNL1       -0.0229
     24  C15       -5.5390    0.4190    0.6650 C.ar    1  UNL1        0.0410
     25  C16       -6.6540    0.7550   -0.0650 C.ar    1  UNL1       -0.0314
     26  C17       -7.8890    0.9520    0.5480 C.ar    1  UNL1        0.0283
     27  N4        -7.9940    0.8110    1.8790 N.ar    1  UNL1       -0.2632
     28  C18       -6.9290    0.4830    2.6340 C.ar    1  UNL1        0.0283
     29  C19       -5.6970    0.2860    2.0260 C.ar    1  UNL1       -0.0314
     30 H          -3.0439   -0.1984    1.5783 H       1  UNL1        0.1731
     31 H          -1.3784   -1.1411    0.0257 H       1  UNL1        0.1731
     32 H          -0.4207    2.0235   -2.9974 H       1  UNL1        0.0625
     33 H           1.6365    1.7575   -4.2347 H       1  UNL1        0.0618
     34 H           3.2068    0.0865   -3.5609 H       1  UNL1        0.0637
     35 H           5.5341   -1.4765   -1.2907 H       1  UNL1        0.1738
     36 H           2.8706   -0.0939    0.7424 H       1  UNL1        0.0637
     37 H           3.2896    0.9708    2.8520 H       1  UNL1        0.0618
     38 H           5.4880    1.0445    3.8368 H       1  UNL1        0.0618
     39 H           7.3286   -0.0064    2.6221 H       1  UNL1        0.0647
     40 H           0.7371   -1.0705   -0.4486 H       1  UNL1        0.0645
     41 H          -6.5745    0.8635   -1.0882 H       1  UNL1        0.0640
     42 H          -8.7158    1.2041   -0.0158 H       1  UNL1        0.0830
     43 H          -7.0277    0.3789    3.6560 H       1  UNL1        0.0830
     44 H          -4.8818    0.0344    2.6067 H       1  UNL1        0.0640
@<TRIPOS>BOND
     1     1     2    2
     2     2     3   am
     3     2    24    1
     4     3     4    1
     5     4     5   am
     6     5     6    2
     7     5     7    1
     8     7     8   ar
     9     7    23   ar
    10     8     9   ar
    11     9    10   ar
    12    10    11   ar
    13    11    12    1
    14    11    23   ar
    15    12    13    2
    16    12    14    2
    17    12    15    1
    18    15    16    1
    19    16    17   ar
    20    16    21   ar
    21    17    18   ar
    22    18    19   ar
    23    19    20   ar
    24    20    21   ar
    25    21    22    1
    26    24    25   ar
    27    24    29   ar
    28    25    26   ar
    29    26    27   ar
    30    27    28   ar
    31    28    29   ar
    32     3    30    1
    33     4    31    1
    34     8    32    1
    35     9    33    1
    36    10    34    1
    37    15    35    1
    38    17    36    1
    39    18    37    1
    40    19    38    1
    41    20    39    1
    42    23    40    1
    43    25    41    1
    44    26    42    1
    45    28    43    1
    46    29    44    1
@<TRIPOS>MOLECULE
../data/bude_mols_rdkit_confs2/molecule_95.pdb
 44 46 0 0 0
SMALL
GASTEIGER

@<TRIPOS>ATOM
      1  O1         4.0480    0.1320    1.8410 O.2     1  UNL1       -0.2687
      2  C1         4.4520    0.0780    0.6290 C.2     1  UNL1        0.2602
      3  N1         3.5270    0.3270   -0.4130 N.am    1  UNL1       -0.2301
      4  N2         2.1830    0.6360   -0.1520 N.am    1  UNL1       -0.2301
      5  C2         1.3030    0.9100   -1.2310 C.2     1  UNL1        0.2602
      6  O2         1.7950    0.8560   -2.3990 O.2     1  UNL1       -0.2687
      7  C3        -0.0990    1.2410   -1.0110 C.ar    1  UNL1        0.0400
      8  C4        -0.8170    1.8960   -1.9970 C.ar    1  UNL1       -0.0495
      9  C5        -2.1280    2.2160   -1.8150 C.ar    1  UNL1       -0.0592
     10  C6        -2.7340    1.8680   -0.6080 C.ar    1  UNL1       -0.0350
     11  C7        -2.0570    1.2170    0.3970 C.ar    1  UNL1        0.1092
     12  S1        -2.8290    0.7820    1.9150 S.O2    1  UNL1        0.0724
     13  O3        -1.8250    0.8560    3.0470 O.2     1  UNL1       -0.1500
     14  O4        -3.8350    1.8640    2.2150 O.2     1  UNL1       -0.1500
     15  N3        -3.5720   -0.7580    1.8490 N.pl3   1  UNL1       -0.2135
     16  C8        -4.6220   -1.0420    0.9590 C.ar    1  UNL1        0.0831
     17  C9        -5.4740   -0.0870    0.4660 C.ar    1  UNL1       -0.0365
     18  C10       -6.5220   -0.4060   -0.4110 C.ar    1  UNL1       -0.0598
     19  C11       -6.7350   -1.7060   -0.8130 C.ar    1  UNL1       -0.0589
     20  C12       -5.8850   -2.6720   -0.3230 C.ar    1  UNL1       -0.0246
     21  C13       -4.8600   -2.3560    0.5350 C.ar    1  UNL1        0.1456
     22  F1        -4.0290   -3.2930    1.0170 F       1  UNL1       -0.2035
     23  C14       -0.7150    0.9090    0.1680 C.ar    1  UNL1       -0.0229
     24  C15        5.8310   -0.2350    0.3780 C.ar    1  UNL1        0.0410
     25  C16        6.7390   -0.3630    1.4240 C.ar    1  UNL1       -0.0314
     26  C17        8.0770   -0.6670    1.1840 C.ar    1  UNL1        0.0283
     27  N4         8.4760   -0.8360   -0.0880 N.ar    1  UNL1       -0.2632
     28  C18        7.6580   -0.7270   -1.1240 C.ar    1  UNL1        0.0283
     29  C19        6.3040   -0.4200   -0.8940 C.ar    1  UNL1       -0.0314
     30 H           3.8350    0.2822   -1.3470 H       1  UNL1        0.1731
     31 H           1.8525    0.6625    0.7750 H       1  UNL1        0.1731
     32 H          -0.3515    2.1456   -2.8836 H       1  UNL1        0.0625
     33 H          -2.6602    2.7041   -2.5522 H       1  UNL1        0.0618
     34 H          -3.7273    2.1078   -0.4635 H       1  UNL1        0.0637
     35 H          -3.2541   -1.4672    2.4533 H       1  UNL1        0.1738
     36 H          -5.3403    0.8965    0.7487 H       1  UNL1        0.0637
     37 H          -7.1409    0.3429   -0.7591 H       1  UNL1        0.0618
     38 H          -7.5037   -1.9472   -1.4580 H       1  UNL1        0.0618
     39 H          -6.0210   -3.6549   -0.6066 H       1  UNL1        0.0647
     40 H          -0.1758    0.4217    0.9007 H       1  UNL1        0.0645
     41 H           6.4156   -0.2304    2.3950 H       1  UNL1        0.0640
     42 H           8.7459   -0.7602    1.9644 H       1  UNL1        0.0830
     43 H           8.0081   -0.8651   -2.0849 H       1  UNL1        0.0830
     44 H           5.6587   -0.3331   -1.6947 H       1  UNL1        0.0640
@<TRIPOS>BOND
     1     1     2    2
     2     2     3   am
     3     2    24    1
     4     3     4    1
     5     4     5   am
     6     5     6    2
     7     5     7    1
     8     7     8   ar
     9     7    23   ar
    10     8     9   ar
    11     9    10   ar
    12    10    11   ar
    13    11    12    1
    14    11    23   ar
    15    12    13    2
    16    12    14    2
    17    12    15    1
    18    15    16    1
    19    16    17   ar
    20    16    21   ar
    21    17    18   ar
    22    18    19   ar
    23    19    20   ar
    24    20    21   ar
    25    21    22    1
    26    24    25   ar
    27    24    29   ar
    28    25    26   ar
    29    26    27   ar
    30    27    28   ar
    31    28    29   ar
    32     3    30    1
    33     4    31    1
    34     8    32    1
    35     9    33    1
    36    10    34    1
    37    15    35    1
    38    17    36    1
    39    18    37    1
    40    19    38    1
    41    20    39    1
    42    23    40    1
    43    25    41    1
    44    26    42    1
    45    28    43    1
    46    29    44    1
@<TRIPOS>MOLECULE
../data/bude_mols_rdkit_confs2/molecule_95.pdb
 44 46 0 0 0
SMALL
GASTEIGER

@<TRIPOS>ATOM
      1  O1        -4.0890    1.8980    0.2800 O.2     1  UNL1       -0.2687
      2  C1        -4.4540    0.6830    0.1350 C.2     1  UNL1        0.2602
      3  N1        -3.5370   -0.3570    0.3010 N.am    1  UNL1       -0.2301
      4  N2        -2.1840   -0.1050    0.6330 N.am    1  UNL1       -0.2301
      5  C2        -1.3860    0.8460   -0.0530 C.2     1  UNL1        0.2602
      6  O2        -1.8490    1.5190   -0.9980 O.2     1  UNL1       -0.2687
      7  C3        -0.0000    1.0330    0.3650 C.ar    1  UNL1        0.0400
      8  C4         0.6030    2.2560    0.1940 C.ar    1  UNL1       -0.0495
      9  C5         1.9030    2.4970    0.5550 C.ar    1  UNL1       -0.0592
     10  C6         2.6780    1.4890    1.1200 C.ar    1  UNL1       -0.0350
     11  C7         2.0910    0.2590    1.2970 C.ar    1  UNL1        0.1092
     12  S1         3.0060   -1.0640    1.9870 S.O2    1  UNL1        0.0724
     13  O3         4.0020   -0.5400    2.9740 O.2     1  UNL1       -0.1500
     14  O4         2.0210   -1.9320    2.7510 O.2     1  UNL1       -0.1500
     15  N3         3.7740   -2.0060    0.7750 N.pl3   1  UNL1       -0.2135
     16  C8         4.7510   -1.4840   -0.1100 C.ar    1  UNL1        0.0831
     17  C9         5.5230   -0.4150    0.2400 C.ar    1  UNL1       -0.0365
     18  C10        6.4580    0.0590   -0.6330 C.ar    1  UNL1       -0.0598
     19  C11        6.6400   -0.5280   -1.8730 C.ar    1  UNL1       -0.0589
     20  C12        5.8650   -1.6230   -2.2560 C.ar    1  UNL1       -0.0246
     21  C13        4.9420   -2.0650   -1.3550 C.ar    1  UNL1        0.1456
     22  F1         4.1820   -3.1410   -1.7300 F       1  UNL1       -0.2035
     23  C14        0.7610    0.0340    0.9220 C.ar    1  UNL1       -0.0229
     24  C15       -5.8460    0.4280   -0.2060 C.ar    1  UNL1        0.0410
     25  C16       -6.3970   -0.8180   -0.1310 C.ar    1  UNL1       -0.0314
     26  C17       -7.7220   -1.1100   -0.4540 C.ar    1  UNL1        0.0283
     27  N4        -8.4870   -0.0830   -0.8620 N.ar    1  UNL1       -0.2632
     28  C18       -7.9730    1.1610   -0.9460 C.ar    1  UNL1        0.0283
     29  C19       -6.6730    1.4720   -0.6350 C.ar    1  UNL1       -0.0314
     30 H          -3.8384   -1.2870    0.1845 H       1  UNL1        0.1731
     31 H          -1.7790   -0.6125    1.3730 H       1  UNL1        0.1731
     32 H           0.0546    3.0242   -0.2232 H       1  UNL1        0.0625
     33 H           2.3103    3.4335    0.4066 H       1  UNL1        0.0618
     34 H           3.6578    1.6588    1.3961 H       1  UNL1        0.0637
     35 H           3.5241   -2.9545    0.6903 H       1  UNL1        0.1738
     36 H           5.4002    0.0332    1.1614 H       1  UNL1        0.0637
     37 H           7.0391    0.8685   -0.3644 H       1  UNL1        0.0618
     38 H           7.3532   -0.1535   -2.5181 H       1  UNL1        0.0618
     39 H           5.9844   -2.0759   -3.1756 H       1  UNL1        0.0647
     40 H           0.3448   -0.8992    1.0666 H       1  UNL1        0.0645
     41 H          -5.7947   -1.5941    0.1850 H       1  UNL1        0.0640
     42 H          -8.0971   -2.0688   -0.3831 H       1  UNL1        0.0830
     43 H          -8.5930    1.9230   -1.2624 H       1  UNL1        0.0830
     44 H          -6.3192    2.4382   -0.7144 H       1  UNL1        0.0640
@<TRIPOS>BOND
     1     1     2    2
     2     2     3   am
     3     2    24    1
     4     3     4    1
     5     4     5   am
     6     5     6    2
     7     5     7    1
     8     7     8   ar
     9     7    23   ar
    10     8     9   ar
    11     9    10   ar
    12    10    11   ar
    13    11    12    1
    14    11    23   ar
    15    12    13    2
    16    12    14    2
    17    12    15    1
    18    15    16    1
    19    16    17   ar
    20    16    21   ar
    21    17    18   ar
    22    18    19   ar
    23    19    20   ar
    24    20    21   ar
    25    21    22    1
    26    24    25   ar
    27    24    29   ar
    28    25    26   ar
    29    26    27   ar
    30    27    28   ar
    31    28    29   ar
    32     3    30    1
    33     4    31    1
    34     8    32    1
    35     9    33    1
    36    10    34    1
    37    15    35    1
    38    17    36    1
    39    18    37    1
    40    19    38    1
    41    20    39    1
    42    23    40    1
    43    25    41    1
    44    26    42    1
    45    28    43    1
    46    29    44    1
@<TRIPOS>MOLECULE
../data/bude_mols_rdkit_confs2/molecule_95.pdb
 44 46 0 0 0
SMALL
GASTEIGER

@<TRIPOS>ATOM
      1  O1         4.2840    1.0280    1.3660 O.2     1  UNL1       -0.2687
      2  C1         4.4310    0.2610    0.3820 C.2     1  UNL1        0.2602
      3  N1         3.3850   -0.0630   -0.5090 N.am    1  UNL1       -0.2301
      4  N2         2.0800    0.4620   -0.3540 N.am    1  UNL1       -0.2301
      5  C2         1.4050    0.5030    0.8820 C.2     1  UNL1        0.2602
      6  O2         1.9250    0.0760    1.9310 O.2     1  UNL1       -0.2687
      7  C3         0.0660    1.0590    0.9340 C.ar    1  UNL1        0.0400
      8  C4        -0.4510    1.5710    2.1100 C.ar    1  UNL1       -0.0495
      9  C5        -1.7250    2.0890    2.1820 C.ar    1  UNL1       -0.0592
     10  C6        -2.5010    2.0970    1.0590 C.ar    1  UNL1       -0.0350
     11  C7        -2.0480    1.5980   -0.1620 C.ar    1  UNL1        0.1092
     12  S1        -3.0740    1.6120   -1.5620 S.O2    1  UNL1        0.0724
     13  O3        -2.2280    2.1500   -2.7180 O.2     1  UNL1       -0.1500
     14  O4        -4.1830    2.6240   -1.2800 O.2     1  UNL1       -0.1500
     15  N3        -3.7810    0.1230   -1.9590 N.pl3   1  UNL1       -0.2135
     16  C8        -4.6530   -0.6070   -1.1550 C.ar    1  UNL1        0.0831
     17  C9        -4.4960   -0.8250    0.1930 C.ar    1  UNL1       -0.0365
     18  C10       -5.3990   -1.5860    0.9460 C.ar    1  UNL1       -0.0598
     19  C11       -6.4910   -2.1440    0.3350 C.ar    1  UNL1       -0.0589
     20  C12       -6.6840   -1.9490   -1.0130 C.ar    1  UNL1       -0.0246
     21  C13       -5.7830   -1.1960   -1.7410 C.ar    1  UNL1        0.1456
     22  F1        -5.9770   -1.0100   -3.0570 F       1  UNL1       -0.2035
     23  C14       -0.7670    1.0950   -0.1700 C.ar    1  UNL1       -0.0229
     24  C15        5.7490   -0.3140    0.1620 C.ar    1  UNL1        0.0410
     25  C16        6.1560   -0.8070   -1.0570 C.ar    1  UNL1       -0.0314
     26  C17        7.4240   -1.3630   -1.2490 C.ar    1  UNL1        0.0283
     27  N4         8.2910   -1.4330   -0.2410 N.ar    1  UNL1       -0.2632
     28  C18        7.9140   -0.9540    0.9740 C.ar    1  UNL1        0.0283
     29  C19        6.6770   -0.3980    1.2100 C.ar    1  UNL1       -0.0314
     30 H           3.5688   -0.6721   -1.2603 H       1  UNL1        0.1731
     31 H           1.6209    0.8163   -1.1496 H       1  UNL1        0.1731
     32 H           0.1355    1.5647    2.9591 H       1  UNL1        0.0625
     33 H          -2.0877    2.4655    3.0718 H       1  UNL1        0.0618
     34 H          -3.4554    2.4855    1.1154 H       1  UNL1        0.0637
     35 H          -3.5547   -0.2602   -2.8372 H       1  UNL1        0.1738
     36 H          -3.6796   -0.4111    0.6696 H       1  UNL1        0.0637
     37 H          -5.2426   -1.7258    1.9564 H       1  UNL1        0.0618
     38 H          -7.1628   -2.7056    0.8812 H       1  UNL1        0.0618
     39 H          -7.5035   -2.3661   -1.4815 H       1  UNL1        0.0647
     40 H          -0.4032    0.7193   -1.0597 H       1  UNL1        0.0645
     41 H           5.5035   -0.7647   -1.8554 H       1  UNL1        0.0640
     42 H           7.6902   -1.7220   -2.1792 H       1  UNL1        0.0830
     43 H           8.5859   -1.0097    1.7553 H       1  UNL1        0.0830
     44 H           6.4348   -0.0462    2.1495 H       1  UNL1        0.0640
@<TRIPOS>BOND
     1     1     2    2
     2     2     3   am
     3     2    24    1
     4     3     4    1
     5     4     5   am
     6     5     6    2
     7     5     7    1
     8     7     8   ar
     9     7    23   ar
    10     8     9   ar
    11     9    10   ar
    12    10    11   ar
    13    11    12    1
    14    11    23   ar
    15    12    13    2
    16    12    14    2
    17    12    15    1
    18    15    16    1
    19    16    17   ar
    20    16    21   ar
    21    17    18   ar
    22    18    19   ar
    23    19    20   ar
    24    20    21   ar
    25    21    22    1
    26    24    25   ar
    27    24    29   ar
    28    25    26   ar
    29    26    27   ar
    30    27    28   ar
    31    28    29   ar
    32     3    30    1
    33     4    31    1
    34     8    32    1
    35     9    33    1
    36    10    34    1
    37    15    35    1
    38    17    36    1
    39    18    37    1
    40    19    38    1
    41    20    39    1
    42    23    40    1
    43    25    41    1
    44    26    42    1
    45    28    43    1
    46    29    44    1
@<TRIPOS>MOLECULE
../data/bude_mols_rdkit_confs2/molecule_95.pdb
 44 46 0 0 0
SMALL
GASTEIGER

@<TRIPOS>ATOM
      1  O1         4.0830    0.8700   -0.9520 O.2     1  UNL1       -0.2687
      2  C1         4.4960   -0.1640   -0.3500 C.2     1  UNL1        0.2602
      3  N1         3.6650   -1.2990   -0.1840 N.am    1  UNL1       -0.2301
      4  N2         2.3470   -1.2800   -0.7000 N.am    1  UNL1       -0.2301
      5  C2         1.4400   -0.2900   -0.3080 C.2     1  UNL1        0.2602
      6  O2         1.8010    0.5890    0.5120 O.2     1  UNL1       -0.2687
      7  C3         0.0830   -0.2620   -0.8350 C.ar    1  UNL1        0.0400
      8  C4        -0.4480   -1.2620   -1.6310 C.ar    1  UNL1       -0.0495
      9  C5        -1.7240   -1.2280   -2.1330 C.ar    1  UNL1       -0.0592
     10  C6        -2.5360   -0.1580   -1.8450 C.ar    1  UNL1       -0.0350
     11  C7        -2.0580    0.8560   -1.0620 C.ar    1  UNL1        0.1092
     12  S1        -3.0430    2.2460   -0.6670 S.O2    1  UNL1        0.0724
     13  O3        -2.1030    3.4220   -0.4360 O.2     1  UNL1       -0.1500
     14  O4        -3.8980    2.6190   -1.8260 O.2     1  UNL1       -0.1500
     15  N3        -3.9170    2.0330    0.7980 N.pl3   1  UNL1       -0.2135
     16  C8        -4.8670    0.9820    0.8800 C.ar    1  UNL1        0.0831
     17  C9        -5.5510    0.4920   -0.2050 C.ar    1  UNL1       -0.0365
     18  C10       -6.4840   -0.5320   -0.0890 C.ar    1  UNL1       -0.0598
     19  C11       -6.7580   -1.0990    1.1360 C.ar    1  UNL1       -0.0589
     20  C12       -6.0700   -0.6060    2.2290 C.ar    1  UNL1       -0.0246
     21  C13       -5.1470    0.4080    2.1120 C.ar    1  UNL1        0.1456
     22  F1        -4.5170    0.8390    3.2270 F       1  UNL1       -0.2035
     23  C14       -0.7720    0.8030   -0.5670 C.ar    1  UNL1       -0.0229
     24  C15        5.8590   -0.1350    0.1630 C.ar    1  UNL1        0.0410
     25  C16        6.6130    1.0290    0.0800 C.ar    1  UNL1       -0.0314
     26  C17        7.9050    1.0660    0.5610 C.ar    1  UNL1        0.0283
     27  N4         8.4550   -0.0460    1.1250 N.ar    1  UNL1       -0.2632
     28  C18        7.7340   -1.1640    1.2060 C.ar    1  UNL1        0.0283
     29  C19        6.4400   -1.2320    0.7340 C.ar    1  UNL1       -0.0314
     30 H           4.0017   -2.0954    0.2869 H       1  UNL1        0.1731
     31 H           2.0656   -1.9713   -1.3420 H       1  UNL1        0.1731
     32 H           0.1463   -2.0745   -1.8584 H       1  UNL1        0.0625
     33 H          -2.0714   -2.0004   -2.7226 H       1  UNL1        0.0618
     34 H          -3.4981   -0.1198   -2.2163 H       1  UNL1        0.0637
     35 H          -3.7613    2.6291    1.5659 H       1  UNL1        0.1738
     36 H          -5.3666    0.8968   -1.1362 H       1  UNL1        0.0637
     37 H          -6.9768   -0.8711   -0.9300 H       1  UNL1        0.0618
     38 H          -7.4481   -1.8601    1.2338 H       1  UNL1        0.0618
     39 H          -6.2540   -1.0104    3.1604 H       1  UNL1        0.0647
     40 H          -0.4321    1.5792    0.0220 H       1  UNL1        0.0645
     41 H           6.2021    1.8745   -0.3459 H       1  UNL1        0.0640
     42 H           8.4556    1.9363    0.4938 H       1  UNL1        0.0830
     43 H           8.1561   -2.0028    1.6342 H       1  UNL1        0.0830
     44 H           5.9092   -2.1136    0.8122 H       1  UNL1        0.0640
@<TRIPOS>BOND
     1     1     2    2
     2     2     3   am
     3     2    24    1
     4     3     4    1
     5     4     5   am
     6     5     6    2
     7     5     7    1
     8     7     8   ar
     9     7    23   ar
    10     8     9   ar
    11     9    10   ar
    12    10    11   ar
    13    11    12    1
    14    11    23   ar
    15    12    13    2
    16    12    14    2
    17    12    15    1
    18    15    16    1
    19    16    17   ar
    20    16    21   ar
    21    17    18   ar
    22    18    19   ar
    23    19    20   ar
    24    20    21   ar
    25    21    22    1
    26    24    25   ar
    27    24    29   ar
    28    25    26   ar
    29    26    27   ar
    30    27    28   ar
    31    28    29   ar
    32     3    30    1
    33     4    31    1
    34     8    32    1
    35     9    33    1
    36    10    34    1
    37    15    35    1
    38    17    36    1
    39    18    37    1
    40    19    38    1
    41    20    39    1
    42    23    40    1
    43    25    41    1
    44    26    42    1
    45    28    43    1
    46    29    44    1
@<TRIPOS>MOLECULE
../data/bude_mols_rdkit_confs2/molecule_95.pdb
 44 46 0 0 0
SMALL
GASTEIGER

@<TRIPOS>ATOM
      1  O1         4.2250   -0.6720    1.6140 O.2     1  UNL1       -0.2687
      2  C1         4.6500   -0.0650    0.5990 C.2     1  UNL1        0.2602
      3  N1         3.7280    0.5550   -0.2700 N.am    1  UNL1       -0.2301
      4  N2         2.3290    0.5190   -0.0320 N.am    1  UNL1       -0.2301
      5  C2         1.6290   -0.7130   -0.0150 C.2     1  UNL1        0.2602
      6  O2         2.2740   -1.7710   -0.2150 O.2     1  UNL1       -0.2687
      7  C3         0.1930   -0.7770    0.2280 C.ar    1  UNL1        0.0400
      8  C4        -0.4320   -2.0140    0.2110 C.ar    1  UNL1       -0.0495
      9  C5        -1.7840   -2.1550    0.4330 C.ar    1  UNL1       -0.0592
     10  C6        -2.5380   -1.0160    0.6820 C.ar    1  UNL1       -0.0350
     11  C7        -1.9410    0.2240    0.7050 C.ar    1  UNL1        0.1092
     12  S1        -2.8420    1.6860    1.0190 S.O2    1  UNL1        0.0724
     13  O3        -2.2380    2.3140    2.2420 O.2     1  UNL1       -0.1500
     14  O4        -2.5950    2.6150   -0.1360 O.2     1  UNL1       -0.1500
     15  N3        -4.5060    1.3840    1.2630 N.pl3   1  UNL1       -0.2135
     16  C8        -5.3420    0.8070    0.2640 C.ar    1  UNL1        0.0831
     17  C9        -4.9050    0.6150   -1.0350 C.ar    1  UNL1       -0.0365
     18  C10       -5.7440    0.0570   -1.9780 C.ar    1  UNL1       -0.0598
     19  C11       -7.0310   -0.3150   -1.6290 C.ar    1  UNL1       -0.0589
     20  C12       -7.4950   -0.1370   -0.3440 C.ar    1  UNL1       -0.0246
     21  C13       -6.6190    0.4240    0.5610 C.ar    1  UNL1        0.1456
     22  F1        -7.0630    0.6080    1.8440 F       1  UNL1       -0.2035
     23  C14       -0.5870    0.3340    0.4780 C.ar    1  UNL1       -0.0229
     24  C15        6.0720   -0.0130    0.3380 C.ar    1  UNL1        0.0410
     25  C16        6.6580    0.7270   -0.6490 C.ar    1  UNL1       -0.0314
     26  C17        8.0480    0.6910   -0.8030 C.ar    1  UNL1        0.0283
     27  N4         8.8510   -0.0420   -0.0210 N.ar    1  UNL1       -0.2632
     28  C18        8.3040   -0.7810    0.9610 C.ar    1  UNL1        0.0283
     29  C19        6.9430   -0.7660    1.1360 C.ar    1  UNL1       -0.0314
     30 H           4.0649    1.0270   -1.0656 H       1  UNL1        0.1731
     31 H           1.8397    1.3591    0.1229 H       1  UNL1        0.1731
     32 H           0.1341   -2.8568    0.0260 H       1  UNL1        0.0625
     33 H          -2.2269   -3.0869    0.4147 H       1  UNL1        0.0618
     34 H          -3.5526   -1.0997    0.8509 H       1  UNL1        0.0637
     35 H          -4.9045    1.6190    2.1320 H       1  UNL1        0.1738
     36 H          -3.9464    0.8906   -1.3000 H       1  UNL1        0.0637
     37 H          -5.4115   -0.0832   -2.9449 H       1  UNL1        0.0618
     38 H          -7.6513   -0.7313   -2.3410 H       1  UNL1        0.0618
     39 H          -8.4522   -0.4104   -0.0719 H       1  UNL1        0.0647
     40 H          -0.1462    1.2670    0.4952 H       1  UNL1        0.0645
     41 H           6.0801    1.3081   -1.2762 H       1  UNL1        0.0640
     42 H           8.4745    1.2556   -1.5542 H       1  UNL1        0.0830
     43 H           8.9021   -1.3537    1.5768 H       1  UNL1        0.0830
     44 H           6.5405   -1.3388    1.8943 H       1  UNL1        0.0640
@<TRIPOS>BOND
     1     1     2    2
     2     2     3   am
     3     2    24    1
     4     3     4    1
     5     4     5   am
     6     5     6    2
     7     5     7    1
     8     7     8   ar
     9     7    23   ar
    10     8     9   ar
    11     9    10   ar
    12    10    11   ar
    13    11    12    1
    14    11    23   ar
    15    12    13    2
    16    12    14    2
    17    12    15    1
    18    15    16    1
    19    16    17   ar
    20    16    21   ar
    21    17    18   ar
    22    18    19   ar
    23    19    20   ar
    24    20    21   ar
    25    21    22    1
    26    24    25   ar
    27    24    29   ar
    28    25    26   ar
    29    26    27   ar
    30    27    28   ar
    31    28    29   ar
    32     3    30    1
    33     4    31    1
    34     8    32    1
    35     9    33    1
    36    10    34    1
    37    15    35    1
    38    17    36    1
    39    18    37    1
    40    19    38    1
    41    20    39    1
    42    23    40    1
    43    25    41    1
    44    26    42    1
    45    28    43    1
    46    29    44    1
@<TRIPOS>MOLECULE
../data/bude_mols_rdkit_confs2/molecule_95.pdb
 44 46 0 0 0
SMALL
GASTEIGER

@<TRIPOS>ATOM
      1  O1         4.2630   -1.5040    0.9210 O.2     1  UNL1       -0.2687
      2  C1         4.5730   -0.9080   -0.1410 C.2     1  UNL1        0.2602
      3  N1         3.6120   -0.0590   -0.7290 N.am    1  UNL1       -0.2301
      4  N2         2.3200    0.1470   -0.1820 N.am    1  UNL1       -0.2301
      5  C2         1.4540    1.1280   -0.6930 C.2     1  UNL1        0.2602
      6  O2         1.9110    1.8100   -1.6710 O.2     1  UNL1       -0.2687
      7  C3         0.1130    1.4240   -0.2140 C.ar    1  UNL1        0.0400
      8  C4        -0.5800    2.5340   -0.7250 C.ar    1  UNL1       -0.0495
      9  C5        -1.8470    2.8610   -0.3150 C.ar    1  UNL1       -0.0592
     10  C6        -2.5050    2.1130    0.6210 C.ar    1  UNL1       -0.0350
     11  C7        -1.8390    1.0000    1.1500 C.ar    1  UNL1        0.1092
     12  S1        -2.7020    0.0940    2.3560 S.O2    1  UNL1        0.0724
     13  O3        -1.7560   -0.6490    3.2940 O.2     1  UNL1       -0.1500
     14  O4        -3.5050    1.0380    3.2390 O.2     1  UNL1       -0.1500
     15  N3        -3.7760   -1.0720    1.7100 N.pl3   1  UNL1       -0.2135
     16  C8        -4.8780   -0.7400    0.8710 C.ar    1  UNL1        0.0831
     17  C9        -4.6320   -0.2420   -0.3880 C.ar    1  UNL1       -0.0365
     18  C10       -5.7000    0.0810   -1.2360 C.ar    1  UNL1       -0.0598
     19  C11       -6.9910   -0.1160   -0.7740 C.ar    1  UNL1       -0.0589
     20  C12       -7.2470   -0.6140    0.4810 C.ar    1  UNL1       -0.0246
     21  C13       -6.1610   -0.9170    1.2820 C.ar    1  UNL1        0.1456
     22  F1        -6.4310   -1.4100    2.5260 F       1  UNL1       -0.2035
     23  C14       -0.5480    0.6770    0.7250 C.ar    1  UNL1       -0.0229
     24  C15        5.8950   -1.1100   -0.7210 C.ar    1  UNL1        0.0410
     25  C16        6.8980   -1.7410    0.0260 C.ar    1  UNL1       -0.0314
     26  C17        8.1460   -1.9380   -0.5270 C.ar    1  UNL1        0.0283
     27  N4         8.4390   -1.5470   -1.7580 N.ar    1  UNL1       -0.2632
     28  C18        7.5100   -0.9410   -2.5040 C.ar    1  UNL1        0.0283
     29  C19        6.2450   -0.7210   -1.9950 C.ar    1  UNL1       -0.0314
     30 H           3.8498    0.4134   -1.5594 H       1  UNL1        0.1731
     31 H           2.0231   -0.4103    0.5733 H       1  UNL1        0.1731
     32 H          -0.1189    3.1247   -1.4346 H       1  UNL1        0.0625
     33 H          -2.3127    3.6877   -0.7209 H       1  UNL1        0.0618
     34 H          -3.4591    2.3597    0.9272 H       1  UNL1        0.0637
     35 H          -3.6243   -2.0197    1.9294 H       1  UNL1        0.1738
     36 H          -3.6603   -0.1063   -0.7080 H       1  UNL1        0.0637
     37 H          -5.5288    0.4566   -2.1819 H       1  UNL1        0.0618
     38 H          -7.7845    0.1183   -1.3909 H       1  UNL1        0.0618
     39 H          -8.2136   -0.7566    0.8134 H       1  UNL1        0.0647
     40 H          -0.0788   -0.1481    1.1301 H       1  UNL1        0.0645
     41 H           6.7034   -2.0580    0.9886 H       1  UNL1        0.0640
     42 H           8.8742   -2.4046    0.0360 H       1  UNL1        0.0830
     43 H           7.7387   -0.6366   -3.4632 H       1  UNL1        0.0830
     44 H           5.5416   -0.2515   -2.5865 H       1  UNL1        0.0640
@<TRIPOS>BOND
     1     1     2    2
     2     2     3   am
     3     2    24    1
     4     3     4    1
     5     4     5   am
     6     5     6    2
     7     5     7    1
     8     7     8   ar
     9     7    23   ar
    10     8     9   ar
    11     9    10   ar
    12    10    11   ar
    13    11    12    1
    14    11    23   ar
    15    12    13    2
    16    12    14    2
    17    12    15    1
    18    15    16    1
    19    16    17   ar
    20    16    21   ar
    21    17    18   ar
    22    18    19   ar
    23    19    20   ar
    24    20    21   ar
    25    21    22    1
    26    24    25   ar
    27    24    29   ar
    28    25    26   ar
    29    26    27   ar
    30    27    28   ar
    31    28    29   ar
    32     3    30    1
    33     4    31    1
    34     8    32    1
    35     9    33    1
    36    10    34    1
    37    15    35    1
    38    17    36    1
    39    18    37    1
    40    19    38    1
    41    20    39    1
    42    23    40    1
    43    25    41    1
    44    26    42    1
    45    28    43    1
    46    29    44    1
@<TRIPOS>MOLECULE
../data/bude_mols_rdkit_confs2/molecule_95.pdb
 44 46 0 0 0
SMALL
GASTEIGER

@<TRIPOS>ATOM
      1  O1        -3.7860   -1.0190   -0.9440 O.2     1  UNL1       -0.2687
      2  C1        -4.4640   -0.0890   -0.4220 C.2     1  UNL1        0.2602
      3  N1        -3.7660    0.7780    0.4510 N.am    1  UNL1       -0.2301
      4  N2        -2.3960    0.5920    0.7070 N.am    1  UNL1       -0.2301
      5  C2        -1.8720   -0.5740    1.3050 C.2     1  UNL1        0.2602
      6  O2        -2.7360   -1.4680    1.6070 O.2     1  UNL1       -0.2687
      7  C3        -0.4680   -0.8010    1.5840 C.ar    1  UNL1        0.0400
      8  C4        -0.0130   -1.9660    2.1580 C.ar    1  UNL1       -0.0495
      9  C5         1.3180   -2.2090    2.4350 C.ar    1  UNL1       -0.0592
     10  C6         2.2480   -1.2110    2.1120 C.ar    1  UNL1       -0.0350
     11  C7         1.8190   -0.0390    1.5370 C.ar    1  UNL1        0.1092
     12  S1         2.9910    1.1980    1.1390 S.O2    1  UNL1        0.0724
     13  O3         2.2370    2.5210    1.2060 O.2     1  UNL1       -0.1500
     14  O4         4.1090    1.2170    2.1290 O.2     1  UNL1       -0.1500
     15  N3         3.6090    1.0070   -0.4350 N.pl3   1  UNL1       -0.2135
     16  C8         4.9620    0.6660   -0.6470 C.ar    1  UNL1        0.0831
     17  C9         6.0340    1.1540    0.0670 C.ar    1  UNL1       -0.0365
     18  C10        7.3360    0.7900   -0.2020 C.ar    1  UNL1       -0.0598
     19  C11        7.6310   -0.0940   -1.2160 C.ar    1  UNL1       -0.0589
     20  C12        6.5920   -0.5980   -1.9440 C.ar    1  UNL1       -0.0246
     21  C13        5.2920   -0.2370   -1.6780 C.ar    1  UNL1        0.1456
     22  F1         4.2680   -0.7370   -2.4020 F       1  UNL1       -0.2035
     23  C14        0.4740    0.1550    1.2800 C.ar    1  UNL1       -0.0229
     24  C15       -5.8670    0.0410   -0.7310 C.ar    1  UNL1        0.0410
     25  C16       -6.4570   -0.8250   -1.6280 C.ar    1  UNL1       -0.0314
     26  C17       -7.8010   -0.6760   -1.9010 C.ar    1  UNL1        0.0283
     27  N4        -8.5250    0.2820   -1.3150 N.ar    1  UNL1       -0.2632
     28  C18       -7.9620    1.1340   -0.4370 C.ar    1  UNL1        0.0283
     29  C19       -6.6190    1.0070   -0.1460 C.ar    1  UNL1       -0.0314
     30 H          -4.2453    1.5207    0.8846 H       1  UNL1        0.1731
     31 H          -1.7714    1.3107    0.4567 H       1  UNL1        0.1731
     32 H          -0.7027   -2.6966    2.3939 H       1  UNL1        0.0625
     33 H           1.6185   -3.0972    2.8661 H       1  UNL1        0.0618
     34 H           3.2513   -1.3560    2.3054 H       1  UNL1        0.0637
     35 H           3.0142    1.1362   -1.2088 H       1  UNL1        0.1738
     36 H           5.8550    1.8196    0.8351 H       1  UNL1        0.0637
     37 H           8.1017    1.1861    0.3653 H       1  UNL1        0.0618
     38 H           8.6055   -0.3665   -1.4188 H       1  UNL1        0.0618
     39 H           6.7859   -1.2630   -2.7090 H       1  UNL1        0.0647
     40 H           0.1684    1.0412    0.8483 H       1  UNL1        0.0645
     41 H          -5.9052   -1.5679   -2.0848 H       1  UNL1        0.0640
     42 H          -8.2558   -1.3164   -2.5704 H       1  UNL1        0.0830
     43 H          -8.5271    1.8716    0.0120 H       1  UNL1        0.0830
     44 H          -6.1805    1.6559    0.5260 H       1  UNL1        0.0640
@<TRIPOS>BOND
     1     1     2    2
     2     2     3   am
     3     2    24    1
     4     3     4    1
     5     4     5   am
     6     5     6    2
     7     5     7    1
     8     7     8   ar
     9     7    23   ar
    10     8     9   ar
    11     9    10   ar
    12    10    11   ar
    13    11    12    1
    14    11    23   ar
    15    12    13    2
    16    12    14    2
    17    12    15    1
    18    15    16    1
    19    16    17   ar
    20    16    21   ar
    21    17    18   ar
    22    18    19   ar
    23    19    20   ar
    24    20    21   ar
    25    21    22    1
    26    24    25   ar
    27    24    29   ar
    28    25    26   ar
    29    26    27   ar
    30    27    28   ar
    31    28    29   ar
    32     3    30    1
    33     4    31    1
    34     8    32    1
    35     9    33    1
    36    10    34    1
    37    15    35    1
    38    17    36    1
    39    18    37    1
    40    19    38    1
    41    20    39    1
    42    23    40    1
    43    25    41    1
    44    26    42    1
    45    28    43    1
    46    29    44    1
@<TRIPOS>MOLECULE
../data/bude_mols_rdkit_confs2/molecule_95.pdb
 44 46 0 0 0
SMALL
GASTEIGER

@<TRIPOS>ATOM
      1  O1        -3.7000    1.4330   -1.1080 O.2     1  UNL1       -0.2687
      2  C1        -4.4680    0.8510   -0.2900 C.2     1  UNL1        0.2602
      3  N1        -3.8650    0.2480    0.8540 N.am    1  UNL1       -0.2301
      4  N2        -2.5180    0.2440    1.1480 N.am    1  UNL1       -0.2301
      5  C2        -1.5060   -0.4380    0.3820 C.2     1  UNL1        0.2602
      6  O2        -1.8500   -1.0670   -0.6300 O.2     1  UNL1       -0.2687
      7  C3        -0.1050   -0.3610    0.8410 C.ar    1  UNL1        0.0400
      8  C4         0.3320    0.6320    1.6920 C.ar    1  UNL1       -0.0495
      9  C5         1.6450    0.6600    2.1450 C.ar    1  UNL1       -0.0592
     10  C6         2.5540   -0.2970    1.7630 C.ar    1  UNL1       -0.0350
     11  C7         2.1440   -1.2910    0.9180 C.ar    1  UNL1        0.1092
     12  S1         3.3330   -2.5110    0.4600 S.O2    1  UNL1        0.0724
     13  O3         4.2690   -2.8440    1.5800 O.2     1  UNL1       -0.1500
     14  O4         2.5390   -3.7450    0.0970 O.2     1  UNL1       -0.1500
     15  N3         4.2730   -1.9740   -0.8830 N.pl3   1  UNL1       -0.2135
     16  C8         5.0910   -0.8170   -0.8200 C.ar    1  UNL1        0.0831
     17  C9         5.7500   -0.4080    0.3410 C.ar    1  UNL1       -0.0365
     18  C10        6.5240    0.7300    0.3560 C.ar    1  UNL1       -0.0598
     19  C11        6.6410    1.4730   -0.8160 C.ar    1  UNL1       -0.0589
     20  C12        5.9870    1.0680   -1.9750 C.ar    1  UNL1       -0.0246
     21  C13        5.2110   -0.0750   -1.9850 C.ar    1  UNL1        0.1456
     22  F1         4.5680   -0.4800   -3.1000 F       1  UNL1       -0.2035
     23  C14        0.8410   -1.3130    0.4730 C.ar    1  UNL1       -0.0229
     24  C15       -5.9070    0.8040   -0.5210 C.ar    1  UNL1        0.0410
     25  C16       -6.3840    1.1010   -1.7810 C.ar    1  UNL1       -0.0314
     26  C17       -7.7510    1.0560   -2.0410 C.ar    1  UNL1        0.0283
     27  N4        -8.5900    0.7180   -1.0450 N.ar    1  UNL1       -0.2632
     28  C18       -8.1480    0.4240    0.1960 C.ar    1  UNL1        0.0283
     29  C19       -6.7940    0.4680    0.4640 C.ar    1  UNL1       -0.0314
     30 H          -4.4641   -0.2056    1.4900 H       1  UNL1        0.1731
     31 H          -2.2250    0.7459    1.9427 H       1  UNL1        0.1731
     32 H          -0.3265    1.3657    1.9971 H       1  UNL1        0.0625
     33 H           1.9439    1.4152    2.7816 H       1  UNL1        0.0618
     34 H           3.5265   -0.2663    2.1069 H       1  UNL1        0.0637
     35 H           4.2406   -2.4882   -1.7219 H       1  UNL1        0.1738
     36 H           5.6551   -0.9684    1.2024 H       1  UNL1        0.0637
     37 H           7.0077    1.0266    1.2180 H       1  UNL1        0.0618
     38 H           7.2166    2.3295   -0.8247 H       1  UNL1        0.0618
     39 H           6.0825    1.6275   -2.8369 H       1  UNL1        0.0647
     40 H           0.5522   -2.0719   -0.1640 H       1  UNL1        0.0645
     41 H          -5.7255    1.3573   -2.5331 H       1  UNL1        0.0640
     42 H          -8.1143    1.2780   -2.9811 H       1  UNL1        0.0830
     43 H          -8.8169    0.1682    0.9390 H       1  UNL1        0.0830
     44 H          -6.4502    0.2464    1.4115 H       1  UNL1        0.0640
@<TRIPOS>BOND
     1     1     2    2
     2     2     3   am
     3     2    24    1
     4     3     4    1
     5     4     5   am
     6     5     6    2
     7     5     7    1
     8     7     8   ar
     9     7    23   ar
    10     8     9   ar
    11     9    10   ar
    12    10    11   ar
    13    11    12    1
    14    11    23   ar
    15    12    13    2
    16    12    14    2
    17    12    15    1
    18    15    16    1
    19    16    17   ar
    20    16    21   ar
    21    17    18   ar
    22    18    19   ar
    23    19    20   ar
    24    20    21   ar
    25    21    22    1
    26    24    25   ar
    27    24    29   ar
    28    25    26   ar
    29    26    27   ar
    30    27    28   ar
    31    28    29   ar
    32     3    30    1
    33     4    31    1
    34     8    32    1
    35     9    33    1
    36    10    34    1
    37    15    35    1
    38    17    36    1
    39    18    37    1
    40    19    38    1
    41    20    39    1
    42    23    40    1
    43    25    41    1
    44    26    42    1
    45    28    43    1
    46    29    44    1
@<TRIPOS>MOLECULE
../data/bude_mols_rdkit_confs2/molecule_95.pdb
 44 46 0 0 0
SMALL
GASTEIGER

@<TRIPOS>ATOM
      1  O1         4.7730    1.2260    0.7220 O.2     1  UNL1       -0.2687
      2  C1         4.7720   -0.0080    0.5000 C.2     1  UNL1        0.2602
      3  N1         3.5430   -0.6760    0.4260 N.am    1  UNL1       -0.2301
      4  N2         2.3510    0.0630    0.6130 N.am    1  UNL1       -0.2301
      5  C2         1.2970    0.0970   -0.3210 C.2     1  UNL1        0.2602
      6  O2         1.4020   -0.5580   -1.3870 O.2     1  UNL1       -0.2687
      7  C3         0.0930    0.8640   -0.0960 C.ar    1  UNL1        0.0400
      8  C4        -0.0170    1.6480    1.0200 C.ar    1  UNL1       -0.0495
      9  C5        -1.1650    2.4030    1.2740 C.ar    1  UNL1       -0.0592
     10  C6        -2.1740    2.3250    0.3610 C.ar    1  UNL1       -0.0350
     11  C7        -2.1160    1.5550   -0.7770 C.ar    1  UNL1        0.1092
     12  S1        -3.4230    1.5040   -1.8870 S.O2    1  UNL1        0.0724
     13  O3        -4.3450    2.6810   -1.5580 O.2     1  UNL1       -0.1500
     14  O4        -2.9140    1.6810   -3.3170 O.2     1  UNL1       -0.1500
     15  N3        -4.4000    0.1050   -1.8370 N.pl3   1  UNL1       -0.2135
     16  C8        -5.1310   -0.2500   -0.6760 C.ar    1  UNL1        0.0831
     17  C9        -5.3430    0.5570    0.4130 C.ar    1  UNL1       -0.0365
     18  C10       -6.0880    0.1670    1.5240 C.ar    1  UNL1       -0.0598
     19  C11       -6.6440   -1.0830    1.5450 C.ar    1  UNL1       -0.0589
     20  C12       -6.4560   -1.9410    0.4580 C.ar    1  UNL1       -0.0246
     21  C13       -5.7140   -1.5230   -0.6230 C.ar    1  UNL1        0.1456
     22  F1        -5.5300   -2.3560   -1.6840 F       1  UNL1       -0.2035
     23  C14       -0.9590    0.8140   -1.0000 C.ar    1  UNL1       -0.0229
     24  C15        6.0270   -0.7150    0.3270 C.ar    1  UNL1        0.0410
     25  C16        6.1220   -2.0520    0.0720 C.ar    1  UNL1       -0.0314
     26  C17        7.3180   -2.7100   -0.0810 C.ar    1  UNL1        0.0283
     27  N4         8.4430   -1.9780    0.0280 N.ar    1  UNL1       -0.2632
     28  C18        8.4040   -0.6400    0.2800 C.ar    1  UNL1        0.0283
     29  C19        7.2120   -0.0010    0.4310 C.ar    1  UNL1       -0.0314
     30 H           3.5092   -1.6435    0.2469 H       1  UNL1        0.1731
     31 H           2.2526    0.5830    1.4431 H       1  UNL1        0.1731
     32 H           0.7669    1.6825    1.6903 H       1  UNL1        0.0625
     33 H          -1.2454    2.9940    2.1162 H       1  UNL1        0.0618
     34 H          -3.0301    2.8750    0.5335 H       1  UNL1        0.0637
     35 H          -4.4570   -0.4694   -2.6345 H       1  UNL1        0.1738
     36 H          -4.9290    1.5023    0.4091 H       1  UNL1        0.0637
     37 H          -6.2185    0.8115    2.3194 H       1  UNL1        0.0618
     38 H          -7.1990   -1.3905    2.3589 H       1  UNL1        0.0618
     39 H          -6.8724   -2.8852    0.4659 H       1  UNL1        0.0647
     40 H          -0.8829    0.2236   -1.8430 H       1  UNL1        0.0645
     41 H           5.2497   -2.5974   -0.0102 H       1  UNL1        0.0640
     42 H           7.3530   -3.7236   -0.2716 H       1  UNL1        0.0830
     43 H           9.2844   -0.1072    0.3570 H       1  UNL1        0.0830
     44 H           7.1896    1.0128    0.6225 H       1  UNL1        0.0640
@<TRIPOS>BOND
     1     1     2    2
     2     2     3   am
     3     2    24    1
     4     3     4    1
     5     4     5   am
     6     5     6    2
     7     5     7    1
     8     7     8   ar
     9     7    23   ar
    10     8     9   ar
    11     9    10   ar
    12    10    11   ar
    13    11    12    1
    14    11    23   ar
    15    12    13    2
    16    12    14    2
    17    12    15    1
    18    15    16    1
    19    16    17   ar
    20    16    21   ar
    21    17    18   ar
    22    18    19   ar
    23    19    20   ar
    24    20    21   ar
    25    21    22    1
    26    24    25   ar
    27    24    29   ar
    28    25    26   ar
    29    26    27   ar
    30    27    28   ar
    31    28    29   ar
    32     3    30    1
    33     4    31    1
    34     8    32    1
    35     9    33    1
    36    10    34    1
    37    15    35    1
    38    17    36    1
    39    18    37    1
    40    19    38    1
    41    20    39    1
    42    23    40    1
    43    25    41    1
    44    26    42    1
    45    28    43    1
    46    29    44    1
@<TRIPOS>MOLECULE
../data/bude_mols_rdkit_confs2/molecule_95.pdb
 44 46 0 0 0
SMALL
GASTEIGER

@<TRIPOS>ATOM
      1  O1        -2.7230   -1.3730    0.9870 O.2     1  UNL1       -0.2687
      2  C1        -3.7960   -0.7350    0.7770 C.2     1  UNL1        0.2602
      3  N1        -3.7000    0.6580    0.5690 N.am    1  UNL1       -0.2301
      4  N2        -2.5040    1.3820    0.5770 N.am    1  UNL1       -0.2301
      5  C2        -1.4160    1.1070   -0.2930 C.2     1  UNL1        0.2602
      6  O2        -1.5990    0.1340   -1.1030 O.2     1  UNL1       -0.2687
      7  C3        -0.1670    1.8560   -0.2940 C.ar    1  UNL1        0.0400
      8  C4         0.0230    2.9870    0.4640 C.ar    1  UNL1       -0.0495
      9  C5         1.2430    3.6660    0.4260 C.ar    1  UNL1       -0.0592
     10  C6         2.2510    3.1810   -0.3850 C.ar    1  UNL1       -0.0350
     11  C7         2.0870    2.0420   -1.1610 C.ar    1  UNL1        0.1092
     12  S1         3.4020    1.5410   -2.1870 S.O2    1  UNL1        0.0724
     13  O3         3.8060    2.6740   -3.1170 O.2     1  UNL1       -0.1500
     14  O4         2.8000    0.4820   -3.1220 O.2     1  UNL1       -0.1500
     15  N3         4.7590    0.9290   -1.3770 N.pl3   1  UNL1       -0.2135
     16  C8         4.7720   -0.2120   -0.5640 C.ar    1  UNL1        0.0831
     17  C9         3.6820   -0.7510    0.0790 C.ar    1  UNL1       -0.0365
     18  C10        3.7520   -1.8760    0.8790 C.ar    1  UNL1       -0.0598
     19  C11        4.9940   -2.5010    1.0460 C.ar    1  UNL1       -0.0589
     20  C12        6.1120   -2.0040    0.4260 C.ar    1  UNL1       -0.0246
     21  C13        5.9920   -0.8860   -0.3570 C.ar    1  UNL1        0.1456
     22  F1         7.0700   -0.3460   -1.0020 F       1  UNL1       -0.2035
     23  C14        0.8670    1.4140   -1.0840 C.ar    1  UNL1       -0.0229
     24  C15       -5.0700   -1.4760    0.7610 C.ar    1  UNL1        0.0410
     25  C16       -6.2600   -0.8680    0.4560 C.ar    1  UNL1       -0.0314
     26  C17       -7.4380   -1.5650    0.4450 C.ar    1  UNL1        0.0283
     27  N4        -7.4320   -2.8710    0.7390 N.ar    1  UNL1       -0.2632
     28  C18       -6.2880   -3.4860    1.0400 C.ar    1  UNL1        0.0283
     29  C19       -5.0780   -2.8320    1.0640 C.ar    1  UNL1       -0.0314
     30 H          -4.5343    1.1548    0.4068 H       1  UNL1        0.1731
     31 H          -2.4112    2.1218    1.2200 H       1  UNL1        0.1731
     32 H          -0.7401    3.3363    1.0645 H       1  UNL1        0.0625
     33 H           1.3890    4.5153    0.9939 H       1  UNL1        0.0618
     34 H           3.1534    3.6809   -0.4147 H       1  UNL1        0.0637
     35 H           5.6080    1.4152   -1.4868 H       1  UNL1        0.1738
     36 H           2.7655   -0.2922   -0.0420 H       1  UNL1        0.0637
     37 H           2.9080   -2.2470    1.3428 H       1  UNL1        0.0618
     38 H           5.0686   -3.3417    1.6399 H       1  UNL1        0.0618
     39 H           7.0277   -2.4642    0.5472 H       1  UNL1        0.0647
     40 H           0.7193    0.5640   -1.6504 H       1  UNL1        0.0645
     41 H          -6.2680    0.1388    0.2294 H       1  UNL1        0.0640
     42 H          -8.3230   -1.0879    0.2121 H       1  UNL1        0.0830
     43 H          -6.3112   -4.4931    1.2640 H       1  UNL1        0.0830
     44 H          -4.2060   -3.3314    1.2990 H       1  UNL1        0.0640
@<TRIPOS>BOND
     1     1     2    2
     2     2     3   am
     3     2    24    1
     4     3     4    1
     5     4     5   am
     6     5     6    2
     7     5     7    1
     8     7     8   ar
     9     7    23   ar
    10     8     9   ar
    11     9    10   ar
    12    10    11   ar
    13    11    12    1
    14    11    23   ar
    15    12    13    2
    16    12    14    2
    17    12    15    1
    18    15    16    1
    19    16    17   ar
    20    16    21   ar
    21    17    18   ar
    22    18    19   ar
    23    19    20   ar
    24    20    21   ar
    25    21    22    1
    26    24    25   ar
    27    24    29   ar
    28    25    26   ar
    29    26    27   ar
    30    27    28   ar
    31    28    29   ar
    32     3    30    1
    33     4    31    1
    34     8    32    1
    35     9    33    1
    36    10    34    1
    37    15    35    1
    38    17    36    1
    39    18    37    1
    40    19    38    1
    41    20    39    1
    42    23    40    1
    43    25    41    1
    44    26    42    1
    45    28    43    1
    46    29    44    1
@<TRIPOS>MOLECULE
../data/bude_mols_rdkit_confs2/molecule_95.pdb
 44 46 0 0 0
SMALL
GASTEIGER

@<TRIPOS>ATOM
      1  O1        -5.2390   -1.8380    0.6250 O.2     1  UNL1       -0.2687
      2  C1        -5.2940   -0.7490    0.0390 C.2     1  UNL1        0.2602
      3  N1        -4.1140   -0.0780   -0.3490 N.am    1  UNL1       -0.2301
      4  N2        -2.8130   -0.5080   -0.1680 N.am    1  UNL1       -0.2301
      5  C2        -1.7750    0.2940    0.3970 C.2     1  UNL1        0.2602
      6  O2        -2.0120    1.4560    0.8040 O.2     1  UNL1       -0.2687
      7  C3        -0.4630   -0.3230    0.4480 C.ar    1  UNL1        0.0400
      8  C4        -0.2160   -1.6350    0.7470 C.ar    1  UNL1       -0.0495
      9  C5         1.0450   -2.1820    0.6780 C.ar    1  UNL1       -0.0592
     10  C6         2.0860   -1.3830    0.2940 C.ar    1  UNL1       -0.0350
     11  C7         1.8910   -0.0490   -0.0190 C.ar    1  UNL1        0.1092
     12  S1         3.1760    0.9760   -0.5990 S.O2    1  UNL1        0.0724
     13  O3         3.7350    0.4560   -1.8860 O.2     1  UNL1       -0.1500
     14  O4         2.6050    2.3840   -0.8720 O.2     1  UNL1       -0.1500
     15  N3         4.4070    1.2190    0.5740 N.pl3   1  UNL1       -0.2135
     16  C8         5.7440    0.7050    0.4440 C.ar    1  UNL1        0.0831
     17  C9         5.9800   -0.3790   -0.3350 C.ar    1  UNL1       -0.0365
     18  C10        7.2700   -0.8910   -0.4880 C.ar    1  UNL1       -0.0598
     19  C11        8.3260   -0.2930    0.1560 C.ar    1  UNL1       -0.0589
     20  C12        8.0650    0.8030    0.9400 C.ar    1  UNL1       -0.0246
     21  C13        6.7850    1.3270    1.1050 C.ar    1  UNL1        0.1456
     22  F1         6.5240    2.3860    1.8680 F       1  UNL1       -0.2035
     23  C14        0.6170    0.4760    0.0610 C.ar    1  UNL1       -0.0229
     24  C15       -6.5830   -0.1500   -0.2660 C.ar    1  UNL1        0.0410
     25  C16       -6.7930    1.2220   -0.2260 C.ar    1  UNL1       -0.0314
     26  C17       -7.9900    1.8050   -0.5550 C.ar    1  UNL1        0.0283
     27  N4        -9.0080    1.0130   -0.9330 N.ar    1  UNL1       -0.2632
     28  C18       -8.8550   -0.3240   -0.9880 C.ar    1  UNL1        0.0283
     29  C19       -7.6710   -0.9340   -0.6640 C.ar    1  UNL1       -0.0314
     30 H          -4.2305    0.7907   -0.7973 H       1  UNL1        0.1731
     31 H          -2.5875   -1.4251   -0.4461 H       1  UNL1        0.1731
     32 H          -1.0038   -2.2363    1.0347 H       1  UNL1        0.0625
     33 H           1.2017   -3.1750    0.9113 H       1  UNL1        0.0618
     34 H           3.0358   -1.7825    0.2364 H       1  UNL1        0.0637
     35 H           4.1851    1.7389    1.3800 H       1  UNL1        0.1738
     36 H           5.1927   -0.8336   -0.8234 H       1  UNL1        0.0637
     37 H           7.4301   -1.7179   -1.0843 H       1  UNL1        0.0618
     38 H           9.2863   -0.6568    0.0534 H       1  UNL1        0.0618
     39 H           8.8515    1.2588    1.4286 H       1  UNL1        0.0647
     40 H           0.4598    1.4700   -0.1675 H       1  UNL1        0.0645
     41 H          -6.0123    1.8311    0.0647 H       1  UNL1        0.0640
     42 H          -8.1065    2.8295   -0.5132 H       1  UNL1        0.0830
     43 H          -9.6537   -0.9071   -1.2831 H       1  UNL1        0.0830
     44 H          -7.5832   -1.9611   -0.7132 H       1  UNL1        0.0640
@<TRIPOS>BOND
     1     1     2    2
     2     2     3   am
     3     2    24    1
     4     3     4    1
     5     4     5   am
     6     5     6    2
     7     5     7    1
     8     7     8   ar
     9     7    23   ar
    10     8     9   ar
    11     9    10   ar
    12    10    11   ar
    13    11    12    1
    14    11    23   ar
    15    12    13    2
    16    12    14    2
    17    12    15    1
    18    15    16    1
    19    16    17   ar
    20    16    21   ar
    21    17    18   ar
    22    18    19   ar
    23    19    20   ar
    24    20    21   ar
    25    21    22    1
    26    24    25   ar
    27    24    29   ar
    28    25    26   ar
    29    26    27   ar
    30    27    28   ar
    31    28    29   ar
    32     3    30    1
    33     4    31    1
    34     8    32    1
    35     9    33    1
    36    10    34    1
    37    15    35    1
    38    17    36    1
    39    18    37    1
    40    19    38    1
    41    20    39    1
    42    23    40    1
    43    25    41    1
    44    26    42    1
    45    28    43    1
    46    29    44    1
@<TRIPOS>MOLECULE
../data/bude_mols_rdkit_confs2/molecule_95.pdb
 44 46 0 0 0
SMALL
GASTEIGER

@<TRIPOS>ATOM
      1  O1         5.0170    1.1480   -1.3480 O.2     1  UNL1       -0.2687
      2  C1         5.1660    0.4950   -0.2940 C.2     1  UNL1        0.2602
      3  N1         3.9910    0.2510    0.4720 N.am    1  UNL1       -0.2301
      4  N2         2.7310    0.7310    0.0410 N.am    1  UNL1       -0.2301
      5  C2         1.6480   -0.1630   -0.1240 C.2     1  UNL1        0.2602
      6  O2         1.8840   -1.3910    0.1460 O.2     1  UNL1       -0.2687
      7  C3         0.3260    0.2150   -0.5690 C.ar    1  UNL1        0.0400
      8  C4         0.1200    1.4690   -1.1240 C.ar    1  UNL1       -0.0495
      9  C5        -1.1340    1.8060   -1.5520 C.ar    1  UNL1       -0.0592
     10  C6        -2.1780    0.9020   -1.4290 C.ar    1  UNL1       -0.0350
     11  C7        -1.9780   -0.3410   -0.8780 C.ar    1  UNL1        0.1092
     12  S1        -3.3320   -1.4230   -0.7450 S.O2    1  UNL1        0.0724
     13  O3        -4.2110   -1.1970   -1.9390 O.2     1  UNL1       -0.1500
     14  O4        -2.9090   -2.8480   -0.7740 O.2     1  UNL1       -0.1500
     15  N3        -4.1880   -1.0450    0.7250 N.pl3   1  UNL1       -0.2135
     16  C8        -5.5130   -0.5020    0.7140 C.ar    1  UNL1        0.0831
     17  C9        -6.4830   -1.0240   -0.1100 C.ar    1  UNL1       -0.0365
     18  C10       -7.7570   -0.5030   -0.1000 C.ar    1  UNL1       -0.0598
     19  C11       -8.1060    0.5430    0.7180 C.ar    1  UNL1       -0.0589
     20  C12       -7.1130    1.0640    1.5490 C.ar    1  UNL1       -0.0246
     21  C13       -5.8390    0.5430    1.5400 C.ar    1  UNL1        0.1456
     22  F1        -4.8970    1.0890    2.3730 F       1  UNL1       -0.2035
     23  C14       -0.7090   -0.6770   -0.4470 C.ar    1  UNL1       -0.0229
     24  C15        6.5000    0.0280    0.0910 C.ar    1  UNL1        0.0410
     25  C16        6.7110   -0.9090    1.0710 C.ar    1  UNL1       -0.0314
     26  C17        7.9850   -1.3280    1.4290 C.ar    1  UNL1        0.0283
     27  N4         9.0600   -0.8060    0.8040 N.ar    1  UNL1       -0.2632
     28  C18        8.8670    0.1210   -0.1690 C.ar    1  UNL1        0.0283
     29  C19        7.6000    0.5580   -0.5470 C.ar    1  UNL1       -0.0314
     30 H           4.0556   -0.2581    1.3122 H       1  UNL1        0.1731
     31 H           2.6084    1.6901   -0.1444 H       1  UNL1        0.1731
     32 H           0.9012    2.1375   -1.2126 H       1  UNL1        0.0625
     33 H          -1.3038    2.7353   -1.9675 H       1  UNL1        0.0618
     34 H          -3.1202    1.1667   -1.7564 H       1  UNL1        0.0637
     35 H          -3.7471   -1.2098    1.5897 H       1  UNL1        0.1738
     36 H          -6.2544   -1.8099   -0.7386 H       1  UNL1        0.0637
     37 H          -8.4701   -0.9102   -0.7251 H       1  UNL1        0.0618
     38 H          -9.0634    0.9282    0.7184 H       1  UNL1        0.0618
     39 H          -7.3370    1.8504    2.1786 H       1  UNL1        0.0647
     40 H          -0.5386   -1.6056   -0.0303 H       1  UNL1        0.0645
     41 H           5.8965   -1.3152    1.5574 H       1  UNL1        0.0640
     42 H           8.1090   -2.0356    2.1699 H       1  UNL1        0.0830
     43 H           9.6913    0.5172   -0.6471 H       1  UNL1        0.0830
     44 H           7.4873    1.2649   -1.2904 H       1  UNL1        0.0640
@<TRIPOS>BOND
     1     1     2    2
     2     2     3   am
     3     2    24    1
     4     3     4    1
     5     4     5   am
     6     5     6    2
     7     5     7    1
     8     7     8   ar
     9     7    23   ar
    10     8     9   ar
    11     9    10   ar
    12    10    11   ar
    13    11    12    1
    14    11    23   ar
    15    12    13    2
    16    12    14    2
    17    12    15    1
    18    15    16    1
    19    16    17   ar
    20    16    21   ar
    21    17    18   ar
    22    18    19   ar
    23    19    20   ar
    24    20    21   ar
    25    21    22    1
    26    24    25   ar
    27    24    29   ar
    28    25    26   ar
    29    26    27   ar
    30    27    28   ar
    31    28    29   ar
    32     3    30    1
    33     4    31    1
    34     8    32    1
    35     9    33    1
    36    10    34    1
    37    15    35    1
    38    17    36    1
    39    18    37    1
    40    19    38    1
    41    20    39    1
    42    23    40    1
    43    25    41    1
    44    26    42    1
    45    28    43    1
    46    29    44    1
@<TRIPOS>MOLECULE
../data/bude_mols_rdkit_confs2/molecule_95.pdb
 44 46 0 0 0
SMALL
GASTEIGER

@<TRIPOS>ATOM
      1  O1        -3.9220   -1.5850   -0.2310 O.2     1  UNL1       -0.2687
      2  C1        -4.4110   -0.5680    0.3730 C.2     1  UNL1        0.2602
      3  N1        -3.6800    0.1300    1.3530 N.am    1  UNL1       -0.2301
      4  N2        -2.3680   -0.3060    1.6770 N.am    1  UNL1       -0.2301
      5  C2        -1.4170   -0.3970    0.6540 C.2     1  UNL1        0.2602
      6  O2        -1.7820   -0.0810   -0.5200 O.2     1  UNL1       -0.2687
      7  C3        -0.0330   -0.8310    0.8590 C.ar    1  UNL1        0.0400
      8  C4         0.4670   -1.0930    2.1140 C.ar    1  UNL1       -0.0495
      9  C5         1.7770   -1.5030    2.2570 C.ar    1  UNL1       -0.0592
     10  C6         2.6070   -1.6570    1.1560 C.ar    1  UNL1       -0.0350
     11  C7         2.1260   -1.4000   -0.1070 C.ar    1  UNL1        0.1092
     12  S1         3.1130   -1.5670   -1.5440 S.O2    1  UNL1        0.0724
     13  O3         2.2180   -2.1010   -2.6300 O.2     1  UNL1       -0.1500
     14  O4         4.2030   -2.5710   -1.3000 O.2     1  UNL1       -0.1500
     15  N3         3.8120   -0.1100   -2.0770 N.pl3   1  UNL1       -0.2135
     16  C8         4.7340    0.6870   -1.3350 C.ar    1  UNL1        0.0831
     17  C9         5.4100    0.2320   -0.2230 C.ar    1  UNL1       -0.0365
     18  C10        6.2940    1.0580    0.4410 C.ar    1  UNL1       -0.0598
     19  C11        6.5270    2.3490    0.0200 C.ar    1  UNL1       -0.0589
     20  C12        5.8690    2.8330   -1.0860 C.ar    1  UNL1       -0.0246
     21  C13        4.9930    1.9990   -1.7360 C.ar    1  UNL1        0.1456
     22  F1         4.3470    2.4860   -2.8270 F       1  UNL1       -0.2035
     23  C14        0.8020   -0.9880   -0.2250 C.ar    1  UNL1       -0.0229
     24  C15       -5.7580   -0.1520    0.0130 C.ar    1  UNL1        0.0410
     25  C16       -6.3770   -0.7510   -1.0930 C.ar    1  UNL1       -0.0314
     26  C17       -7.6480   -0.3470   -1.4160 C.ar    1  UNL1        0.0283
     27  N4        -8.2750    0.5970   -0.6870 N.ar    1  UNL1       -0.2632
     28  C18       -7.6990    1.1750    0.3670 C.ar    1  UNL1        0.0283
     29  C19       -6.4110    0.8090    0.7450 C.ar    1  UNL1       -0.0314
     30 H          -4.0731    0.9098    1.8075 H       1  UNL1        0.1731
     31 H          -2.1317   -0.5399    2.6037 H       1  UNL1        0.1731
     32 H          -0.1352   -0.9833    2.9449 H       1  UNL1        0.0625
     33 H           2.1461   -1.6987    3.2006 H       1  UNL1        0.0618
     34 H           3.5839   -1.9639    1.2843 H       1  UNL1        0.0637
     35 H           3.5589    0.2101   -2.9730 H       1  UNL1        0.1738
     36 H           5.2543   -0.7308    0.1145 H       1  UNL1        0.0637
     37 H           6.7917    0.7007    1.2715 H       1  UNL1        0.0618
     38 H           7.1919    2.9496    0.5321 H       1  UNL1        0.0618
     39 H           6.0291    3.7967   -1.4185 H       1  UNL1        0.0647
     40 H           0.4291   -0.7913   -1.1670 H       1  UNL1        0.0645
     41 H          -5.8917   -1.4737   -1.6473 H       1  UNL1        0.0640
     42 H          -8.1285   -0.7704   -2.2253 H       1  UNL1        0.0830
     43 H          -8.2088    1.8945    0.9031 H       1  UNL1        0.0830
     44 H          -5.9556    1.2508    1.5590 H       1  UNL1        0.0640
@<TRIPOS>BOND
     1     1     2    2
     2     2     3   am
     3     2    24    1
     4     3     4    1
     5     4     5   am
     6     5     6    2
     7     5     7    1
     8     7     8   ar
     9     7    23   ar
    10     8     9   ar
    11     9    10   ar
    12    10    11   ar
    13    11    12    1
    14    11    23   ar
    15    12    13    2
    16    12    14    2
    17    12    15    1
    18    15    16    1
    19    16    17   ar
    20    16    21   ar
    21    17    18   ar
    22    18    19   ar
    23    19    20   ar
    24    20    21   ar
    25    21    22    1
    26    24    25   ar
    27    24    29   ar
    28    25    26   ar
    29    26    27   ar
    30    27    28   ar
    31    28    29   ar
    32     3    30    1
    33     4    31    1
    34     8    32    1
    35     9    33    1
    36    10    34    1
    37    15    35    1
    38    17    36    1
    39    18    37    1
    40    19    38    1
    41    20    39    1
    42    23    40    1
    43    25    41    1
    44    26    42    1
    45    28    43    1
    46    29    44    1
@<TRIPOS>MOLECULE
../data/bude_mols_rdkit_confs2/molecule_95.pdb
 44 46 0 0 0
SMALL
GASTEIGER

@<TRIPOS>ATOM
      1  O1         4.2190    1.0540    1.5340 O.2     1  UNL1       -0.2687
      2  C1         4.5040    0.8650    0.3000 C.2     1  UNL1        0.2602
      3  N1         3.4580    0.7640   -0.6460 N.am    1  UNL1       -0.2301
      4  N2         2.1010    0.8580   -0.2320 N.am    1  UNL1       -0.2301
      5  C2         1.4800   -0.2790    0.3550 C.2     1  UNL1        0.2602
      6  O2         2.1650   -1.3540    0.4870 O.2     1  UNL1       -0.2687
      7  C3         0.1110   -0.2960    0.8130 C.ar    1  UNL1        0.0400
      8  C4        -0.3520    0.6750    1.7000 C.ar    1  UNL1       -0.0495
      9  C5        -1.6520    0.6630    2.1580 C.ar    1  UNL1       -0.0592
     10  C6        -2.5060   -0.3430    1.7160 C.ar    1  UNL1       -0.0350
     11  C7        -2.0900   -1.3150    0.8430 C.ar    1  UNL1        0.1092
     12  S1        -3.1650   -2.5810    0.2670 S.O2    1  UNL1        0.0724
     13  O3        -2.3170   -3.7630   -0.1910 O.2     1  UNL1       -0.1500
     14  O4        -4.0970   -3.0660    1.3130 O.2     1  UNL1       -0.1500
     15  N3        -4.0770   -1.9550   -1.0500 N.pl3   1  UNL1       -0.2135
     16  C8        -4.9530   -0.8570   -0.8900 C.ar    1  UNL1        0.0831
     17  C9        -5.7110   -0.7040    0.2600 C.ar    1  UNL1       -0.0365
     18  C10       -6.5720    0.3770    0.3780 C.ar    1  UNL1       -0.0598
     19  C11       -6.6990    1.3180   -0.6320 C.ar    1  UNL1       -0.0589
     20  C12       -5.9520    1.1580   -1.7560 C.ar    1  UNL1       -0.0246
     21  C13       -5.0750    0.0740   -1.8970 C.ar    1  UNL1        0.1456
     22  F1        -4.3460   -0.0380   -3.0500 F       1  UNL1       -0.2035
     23  C14       -0.7810   -1.2870    0.3940 C.ar    1  UNL1       -0.0229
     24  C15        5.9140    0.7590   -0.0770 C.ar    1  UNL1        0.0410
     25  C16        6.9020    0.9040    0.8680 C.ar    1  UNL1       -0.0314
     26  C17        8.2370    0.7970    0.5620 C.ar    1  UNL1        0.0283
     27  N4         8.5730    0.5370   -0.7290 N.ar    1  UNL1       -0.2632
     28  C18        7.6590    0.3810   -1.7120 C.ar    1  UNL1        0.0283
     29  C19        6.3250    0.4990   -1.3540 C.ar    1  UNL1       -0.0314
     30 H           3.6707    0.6277   -1.5975 H       1  UNL1        0.1731
     31 H           1.5992    1.6968   -0.3498 H       1  UNL1        0.1731
     32 H           0.2906    1.4166    2.0196 H       1  UNL1        0.0625
     33 H          -1.9853    1.3854    2.8154 H       1  UNL1        0.0618
     34 H          -3.4806   -0.3578    2.0551 H       1  UNL1        0.0637
     35 H          -3.9868   -2.3717   -1.9374 H       1  UNL1        0.1738
     36 H          -5.6351   -1.3918    1.0257 H       1  UNL1        0.0637
     37 H          -7.1316    0.4834    1.2385 H       1  UNL1        0.0618
     38 H          -7.3432    2.1182   -0.5331 H       1  UNL1        0.0618
     39 H          -6.0320    1.8474   -2.5197 H       1  UNL1        0.0647
     40 H          -0.4569   -2.0131   -0.2639 H       1  UNL1        0.0645
     41 H           6.6305    1.1006    1.8440 H       1  UNL1        0.0640
     42 H           8.9610    0.9103    1.2886 H       1  UNL1        0.0830
     43 H           7.9412    0.1831   -2.6847 H       1  UNL1        0.0830
     44 H           5.6078    0.3850   -2.0872 H       1  UNL1        0.0640
@<TRIPOS>BOND
     1     1     2    2
     2     2     3   am
     3     2    24    1
     4     3     4    1
     5     4     5   am
     6     5     6    2
     7     5     7    1
     8     7     8   ar
     9     7    23   ar
    10     8     9   ar
    11     9    10   ar
    12    10    11   ar
    13    11    12    1
    14    11    23   ar
    15    12    13    2
    16    12    14    2
    17    12    15    1
    18    15    16    1
    19    16    17   ar
    20    16    21   ar
    21    17    18   ar
    22    18    19   ar
    23    19    20   ar
    24    20    21   ar
    25    21    22    1
    26    24    25   ar
    27    24    29   ar
    28    25    26   ar
    29    26    27   ar
    30    27    28   ar
    31    28    29   ar
    32     3    30    1
    33     4    31    1
    34     8    32    1
    35     9    33    1
    36    10    34    1
    37    15    35    1
    38    17    36    1
    39    18    37    1
    40    19    38    1
    41    20    39    1
    42    23    40    1
    43    25    41    1
    44    26    42    1
    45    28    43    1
    46    29    44    1
@<TRIPOS>MOLECULE
../data/bude_mols_rdkit_confs2/molecule_95.pdb
 44 46 0 0 0
SMALL
GASTEIGER

@<TRIPOS>ATOM
      1  O1         4.5290   -2.0340    0.3270 O.2     1  UNL1       -0.2687
      2  C1         4.7200   -0.7970    0.2480 C.2     1  UNL1        0.2602
      3  N1         3.6810    0.0820    0.5650 N.am    1  UNL1       -0.2301
      4  N2         2.4030   -0.3500    0.9760 N.am    1  UNL1       -0.2301
      5  C2         1.3790   -0.4280    0.0220 C.2     1  UNL1        0.2602
      6  O2         1.6560   -0.1010   -1.1830 O.2     1  UNL1       -0.2687
      7  C3         0.0140   -0.8510    0.2810 C.ar    1  UNL1        0.0400
      8  C4        -0.3400   -1.2860    1.5340 C.ar    1  UNL1       -0.0495
      9  C5        -1.6560   -1.6900    1.7740 C.ar    1  UNL1       -0.0592
     10  C6        -2.6050   -1.6570    0.7620 C.ar    1  UNL1       -0.0350
     11  C7        -2.2680   -1.2250   -0.4980 C.ar    1  UNL1        0.1092
     12  S1        -3.4630   -1.1770   -1.7630 S.O2    1  UNL1        0.0724
     13  O3        -4.5420   -2.2180   -1.4980 O.2     1  UNL1       -0.1500
     14  O4        -2.8440   -1.5870   -3.0810 O.2     1  UNL1       -0.1500
     15  N3        -4.2110    0.3530   -1.9440 N.pl3   1  UNL1       -0.2135
     16  C8        -4.9730    0.9810   -0.9380 C.ar    1  UNL1        0.0831
     17  C9        -5.5390    0.2330    0.0630 C.ar    1  UNL1       -0.0365
     18  C10       -6.3090    0.8320    1.0690 C.ar    1  UNL1       -0.0598
     19  C11       -6.5040    2.1920    1.0570 C.ar    1  UNL1       -0.0589
     20  C12       -5.9390    2.9640    0.0500 C.ar    1  UNL1       -0.0246
     21  C13       -5.1810    2.3400   -0.9320 C.ar    1  UNL1        0.1456
     22  F1        -4.6480    3.1250   -1.8950 F       1  UNL1       -0.2035
     23  C14       -0.9620   -0.8350   -0.6940 C.ar    1  UNL1       -0.0229
     24  C15        6.0240   -0.3160   -0.1720 C.ar    1  UNL1        0.0410
     25  C16        6.2840    1.0110   -0.4120 C.ar    1  UNL1       -0.0314
     26  C17        7.5170    1.4850   -0.8090 C.ar    1  UNL1        0.0283
     27  N4         8.5090    0.5930   -0.9650 N.ar    1  UNL1       -0.2632
     28  C18        8.2950   -0.7160   -0.7400 C.ar    1  UNL1        0.0283
     29  C19        7.0820   -1.2080   -0.3470 C.ar    1  UNL1       -0.0314
     30 H           3.8493    1.0497    0.4982 H       1  UNL1        0.1731
     31 H           2.2333   -0.5922    1.9150 H       1  UNL1        0.1731
     32 H           0.3597   -1.3144    2.2921 H       1  UNL1        0.0625
     33 H          -1.9254   -2.0168    2.7151 H       1  UNL1        0.0618
     34 H          -3.5721   -1.9595    0.9575 H       1  UNL1        0.0637
     35 H          -4.1022    0.8223   -2.8026 H       1  UNL1        0.1738
     36 H          -5.3952   -0.7889    0.0754 H       1  UNL1        0.0637
     37 H          -6.7274    0.2546    1.8150 H       1  UNL1        0.0618
     38 H          -7.0696    2.6394    1.7953 H       1  UNL1        0.0618
     39 H          -6.0804    3.9861    0.0319 H       1  UNL1        0.0647
     40 H          -0.6947   -0.5080   -1.6356 H       1  UNL1        0.0645
     41 H           5.5162    1.6895   -0.2888 H       1  UNL1        0.0640
     42 H           7.6720    2.4908   -0.9803 H       1  UNL1        0.0830
     43 H           9.0784   -1.3752   -0.8694 H       1  UNL1        0.0830
     44 H           6.9515   -2.2185   -0.1831 H       1  UNL1        0.0640
@<TRIPOS>BOND
     1     1     2    2
     2     2     3   am
     3     2    24    1
     4     3     4    1
     5     4     5   am
     6     5     6    2
     7     5     7    1
     8     7     8   ar
     9     7    23   ar
    10     8     9   ar
    11     9    10   ar
    12    10    11   ar
    13    11    12    1
    14    11    23   ar
    15    12    13    2
    16    12    14    2
    17    12    15    1
    18    15    16    1
    19    16    17   ar
    20    16    21   ar
    21    17    18   ar
    22    18    19   ar
    23    19    20   ar
    24    20    21   ar
    25    21    22    1
    26    24    25   ar
    27    24    29   ar
    28    25    26   ar
    29    26    27   ar
    30    27    28   ar
    31    28    29   ar
    32     3    30    1
    33     4    31    1
    34     8    32    1
    35     9    33    1
    36    10    34    1
    37    15    35    1
    38    17    36    1
    39    18    37    1
    40    19    38    1
    41    20    39    1
    42    23    40    1
    43    25    41    1
    44    26    42    1
    45    28    43    1
    46    29    44    1
@<TRIPOS>MOLECULE
../data/bude_mols_rdkit_confs2/molecule_95.pdb
 44 46 0 0 0
SMALL
GASTEIGER

@<TRIPOS>ATOM
      1  O1        -4.1980    1.0060   -1.4010 O.2     1  UNL1       -0.2687
      2  C1        -4.7220    0.3690   -0.4190 C.2     1  UNL1        0.2602
      3  N1        -3.8090   -0.3860    0.3810 N.am    1  UNL1       -0.2301
      4  N2        -2.4410   -0.4180    0.1110 N.am    1  UNL1       -0.2301
      5  C2        -1.6850   -1.6200    0.0030 C.2     1  UNL1        0.2602
      6  O2        -2.2610   -2.7040    0.1580 O.2     1  UNL1       -0.2687
      7  C3        -0.2460   -1.4570   -0.2950 C.ar    1  UNL1        0.0400
      8  C4         0.4290   -2.1860   -1.2270 C.ar    1  UNL1       -0.0495
      9  C5         1.7570   -1.9610   -1.4950 C.ar    1  UNL1       -0.0592
     10  C6         2.4230   -0.9650   -0.7960 C.ar    1  UNL1       -0.0350
     11  C7         1.8060   -0.2030    0.1500 C.ar    1  UNL1        0.1092
     12  S1         2.5480    1.0940    0.9870 S.O2    1  UNL1        0.0724
     13  O3         2.5500    2.3480    0.1320 O.2     1  UNL1       -0.1500
     14  O4         1.6480    1.4350    2.1740 O.2     1  UNL1       -0.1500
     15  N3         4.1040    0.8560    1.6080 N.pl3   1  UNL1       -0.2135
     16  C8         5.2690    0.5880    0.8480 C.ar    1  UNL1        0.0831
     17  C9         5.7810   -0.6250    0.5050 C.ar    1  UNL1       -0.0365
     18  C10        6.9660   -0.7180   -0.2160 C.ar    1  UNL1       -0.0598
     19  C11        7.6650    0.4030   -0.6120 C.ar    1  UNL1       -0.0589
     20  C12        7.1530    1.6440   -0.2690 C.ar    1  UNL1       -0.0246
     21  C13        5.9810    1.7340    0.4450 C.ar    1  UNL1        0.1456
     22  F1         5.5080    2.9540    0.7560 F       1  UNL1       -0.2035
     23  C14        0.4470   -0.4830    0.3770 C.ar    1  UNL1       -0.0229
     24  C15       -6.1660    0.4500   -0.1750 C.ar    1  UNL1        0.0410
     25  C16       -6.9600   -0.6760   -0.2480 C.ar    1  UNL1       -0.0314
     26  C17       -8.3000   -0.5550    0.0090 C.ar    1  UNL1        0.0283
     27  N4        -8.8560    0.6220    0.3280 N.ar    1  UNL1       -0.2632
     28  C18       -8.0880    1.7210    0.4000 C.ar    1  UNL1        0.0283
     29  C19       -6.7570    1.6470    0.1540 C.ar    1  UNL1       -0.0314
     30 H          -4.1565   -0.8991    1.1460 H       1  UNL1        0.1731
     31 H          -1.9716    0.4386   -0.0118 H       1  UNL1        0.1731
     32 H          -0.0702   -2.9261   -1.7448 H       1  UNL1        0.0625
     33 H           2.2514   -2.5238   -2.2049 H       1  UNL1        0.0618
     34 H           3.4204   -0.7953   -0.9996 H       1  UNL1        0.0637
     35 H           4.2091    0.9085    2.5855 H       1  UNL1        0.1738
     36 H           5.2841   -1.4857    0.7832 H       1  UNL1        0.0637
     37 H           7.3325   -1.6510   -0.4615 H       1  UNL1        0.0618
     38 H           8.5431    0.3200   -1.1478 H       1  UNL1        0.0618
     39 H           7.6521    2.5025   -0.5499 H       1  UNL1        0.0647
     40 H          -0.0552    0.0735    1.0863 H       1  UNL1        0.0645
     41 H          -6.5520   -1.5921   -0.4916 H       1  UNL1        0.0640
     42 H          -8.8985   -1.3940   -0.0445 H       1  UNL1        0.0830
     43 H          -8.5141    2.6286    0.6444 H       1  UNL1        0.0830
     44 H          -6.1797    2.5003    0.2145 H       1  UNL1        0.0640
@<TRIPOS>BOND
     1     1     2    2
     2     2     3   am
     3     2    24    1
     4     3     4    1
     5     4     5   am
     6     5     6    2
     7     5     7    1
     8     7     8   ar
     9     7    23   ar
    10     8     9   ar
    11     9    10   ar
    12    10    11   ar
    13    11    12    1
    14    11    23   ar
    15    12    13    2
    16    12    14    2
    17    12    15    1
    18    15    16    1
    19    16    17   ar
    20    16    21   ar
    21    17    18   ar
    22    18    19   ar
    23    19    20   ar
    24    20    21   ar
    25    21    22    1
    26    24    25   ar
    27    24    29   ar
    28    25    26   ar
    29    26    27   ar
    30    27    28   ar
    31    28    29   ar
    32     3    30    1
    33     4    31    1
    34     8    32    1
    35     9    33    1
    36    10    34    1
    37    15    35    1
    38    17    36    1
    39    18    37    1
    40    19    38    1
    41    20    39    1
    42    23    40    1
    43    25    41    1
    44    26    42    1
    45    28    43    1
    46    29    44    1
@<TRIPOS>MOLECULE
../data/bude_mols_rdkit_confs2/molecule_95.pdb
 44 46 0 0 0
SMALL
GASTEIGER

@<TRIPOS>ATOM
      1  O1         4.7270    1.2650   -1.3680 O.2     1  UNL1       -0.2687
      2  C1         5.0450    0.3470   -0.5870 C.2     1  UNL1        0.2602
      3  N1         4.1150   -0.6610   -0.2550 N.am    1  UNL1       -0.2301
      4  N2         2.8050   -0.6750   -0.7890 N.am    1  UNL1       -0.2301
      5  C2         1.6540   -0.7360    0.0260 C.2     1  UNL1        0.2602
      6  O2         1.8050   -0.7780    1.2700 O.2     1  UNL1       -0.2687
      7  C3         0.3160   -0.7520   -0.5200 C.ar    1  UNL1        0.0400
      8  C4         0.0920   -0.5300   -1.8530 C.ar    1  UNL1       -0.0495
      9  C5        -1.1820   -0.5490   -2.4080 C.ar    1  UNL1       -0.0592
     10  C6        -2.2500   -0.8050   -1.5700 C.ar    1  UNL1       -0.0350
     11  C7        -2.0880   -1.0340   -0.2270 C.ar    1  UNL1        0.1092
     12  S1        -3.4300   -1.3600    0.8510 S.O2    1  UNL1        0.0724
     13  O3        -4.4560   -2.2220    0.1560 O.2     1  UNL1       -0.1500
     14  O4        -2.9430   -2.0740    2.0690 O.2     1  UNL1       -0.1500
     15  N3        -4.0900    0.1650    1.3360 N.pl3   1  UNL1       -0.2135
     16  C8        -5.3870    0.5780    1.0110 C.ar    1  UNL1        0.0831
     17  C9        -6.4660   -0.2460    1.2150 C.ar    1  UNL1       -0.0365
     18  C10       -7.7560    0.1280    0.9300 C.ar    1  UNL1       -0.0598
     19  C11       -8.0010    1.3910    0.4110 C.ar    1  UNL1       -0.0589
     20  C12       -6.9330    2.2400    0.1950 C.ar    1  UNL1       -0.0246
     21  C13       -5.6360    1.8360    0.4940 C.ar    1  UNL1        0.1456
     22  F1        -4.5960    2.6630    0.2800 F       1  UNL1       -0.2035
     23  C14       -0.8020   -1.0000    0.2570 C.ar    1  UNL1       -0.0229
     24  C15        6.3910    0.3320   -0.0270 C.ar    1  UNL1        0.0410
     25  C16        6.8060   -0.5250    0.9570 C.ar    1  UNL1       -0.0314
     26  C17        8.1090   -0.4820    1.4250 C.ar    1  UNL1        0.0283
     27  N4         9.0220    0.3820    0.9520 N.ar    1  UNL1       -0.2632
     28  C18        8.6340    1.2390   -0.0220 C.ar    1  UNL1        0.0283
     29  C19        7.3550    1.2230   -0.5070 C.ar    1  UNL1       -0.0314
     30 H           4.3856   -1.3752    0.3662 H       1  UNL1        0.1731
     31 H           2.6918   -0.6409   -1.7664 H       1  UNL1        0.1731
     32 H           0.8991   -0.3417   -2.4679 H       1  UNL1        0.0625
     33 H          -1.3258   -0.3771   -3.4154 H       1  UNL1        0.0618
     34 H          -3.2021   -0.8247   -1.9677 H       1  UNL1        0.0637
     35 H          -3.5249    0.7718    1.8668 H       1  UNL1        0.1738
     36 H          -6.3000   -1.1890    1.5999 H       1  UNL1        0.0637
     37 H          -8.5368   -0.5250    1.1004 H       1  UNL1        0.0618
     38 H          -8.9635    1.6908    0.1903 H       1  UNL1        0.0618
     39 H          -7.0988    3.1824   -0.1916 H       1  UNL1        0.0647
     40 H          -0.6610   -1.1704    1.2650 H       1  UNL1        0.0645
     41 H           6.1423   -1.2088    1.3533 H       1  UNL1        0.0640
     42 H           8.3898   -1.1411    2.1678 H       1  UNL1        0.0830
     43 H           9.3138    1.9148   -0.4044 H       1  UNL1        0.0830
     44 H           7.0938    1.8895   -1.2504 H       1  UNL1        0.0640
@<TRIPOS>BOND
     1     1     2    2
     2     2     3   am
     3     2    24    1
     4     3     4    1
     5     4     5   am
     6     5     6    2
     7     5     7    1
     8     7     8   ar
     9     7    23   ar
    10     8     9   ar
    11     9    10   ar
    12    10    11   ar
    13    11    12    1
    14    11    23   ar
    15    12    13    2
    16    12    14    2
    17    12    15    1
    18    15    16    1
    19    16    17   ar
    20    16    21   ar
    21    17    18   ar
    22    18    19   ar
    23    19    20   ar
    24    20    21   ar
    25    21    22    1
    26    24    25   ar
    27    24    29   ar
    28    25    26   ar
    29    26    27   ar
    30    27    28   ar
    31    28    29   ar
    32     3    30    1
    33     4    31    1
    34     8    32    1
    35     9    33    1
    36    10    34    1
    37    15    35    1
    38    17    36    1
    39    18    37    1
    40    19    38    1
    41    20    39    1
    42    23    40    1
    43    25    41    1
    44    26    42    1
    45    28    43    1
    46    29    44    1
@<TRIPOS>MOLECULE
../data/bude_mols_rdkit_confs2/molecule_95.pdb
 44 46 0 0 0
SMALL
GASTEIGER

@<TRIPOS>ATOM
      1  O1         4.9240   -1.3100   -1.1120 O.2     1  UNL1       -0.2687
      2  C1         4.9770   -0.5190   -0.1150 C.2     1  UNL1        0.2602
      3  N1         3.7760    0.0340    0.3790 N.am    1  UNL1       -0.2301
      4  N2         2.5420   -0.2760   -0.2120 N.am    1  UNL1       -0.2301
      5  C2         1.3730    0.4100    0.1900 C.2     1  UNL1        0.2602
      6  O2         1.4160    1.3030    1.0780 O.2     1  UNL1       -0.2687
      7  C3         0.1040    0.0490   -0.4660 C.ar    1  UNL1        0.0400
      8  C4        -0.1020   -1.1700   -1.0720 C.ar    1  UNL1       -0.0495
      9  C5        -1.2810   -1.4890   -1.7020 C.ar    1  UNL1       -0.0592
     10  C6        -2.3260   -0.5720   -1.7500 C.ar    1  UNL1       -0.0350
     11  C7        -2.1340    0.6440   -1.1510 C.ar    1  UNL1        0.1092
     12  S1        -3.3960    1.8340   -1.2130 S.O2    1  UNL1        0.0724
     13  O3        -2.7890    3.2360   -1.2290 O.2     1  UNL1       -0.1500
     14  O4        -4.1040    1.6150   -2.5510 O.2     1  UNL1       -0.1500
     15  N3        -4.4890    1.7850    0.0810 N.pl3   1  UNL1       -0.2135
     16  C8        -5.3030    0.6580    0.3530 C.ar    1  UNL1        0.0831
     17  C9        -4.8330   -0.6020    0.6400 C.ar    1  UNL1       -0.0365
     18  C10       -5.6950   -1.6560    0.9150 C.ar    1  UNL1       -0.0598
     19  C11       -7.0560   -1.4970    0.9160 C.ar    1  UNL1       -0.0589
     20  C12       -7.5470   -0.2490    0.6330 C.ar    1  UNL1       -0.0246
     21  C13       -6.7010    0.7970    0.3600 C.ar    1  UNL1        0.1456
     22  F1        -7.2000    2.0440    0.0750 F       1  UNL1       -0.2035
     23  C14       -0.9310    0.9590   -0.5110 C.ar    1  UNL1       -0.0229
     24  C15        6.2690   -0.2130    0.4770 C.ar    1  UNL1        0.0410
     25  C16        6.4790    0.9120    1.2590 C.ar    1  UNL1       -0.0314
     26  C17        7.7050    1.1890    1.8240 C.ar    1  UNL1        0.0283
     27  N4         8.7570    0.3740    1.6400 N.ar    1  UNL1       -0.2632
     28  C18        8.5640   -0.7220    0.8820 C.ar    1  UNL1        0.0283
     29  C19        7.3580   -1.0420    0.2960 C.ar    1  UNL1       -0.0314
     30 H           3.8047    0.6462    1.1495 H       1  UNL1        0.1731
     31 H           2.4901   -0.9715   -0.9069 H       1  UNL1        0.1731
     32 H           0.6565   -1.8696   -1.0524 H       1  UNL1        0.0625
     33 H          -1.3919   -2.4156   -2.1427 H       1  UNL1        0.0618
     34 H          -3.2154   -0.8005   -2.2210 H       1  UNL1        0.0637
     35 H          -4.5613    2.5721    0.6679 H       1  UNL1        0.1738
     36 H          -3.8146   -0.7687    0.6514 H       1  UNL1        0.0637
     37 H          -5.2989   -2.5856    1.1246 H       1  UNL1        0.0618
     38 H          -7.6874   -2.2869    1.1220 H       1  UNL1        0.0618
     39 H          -8.5672   -0.0935    0.6250 H       1  UNL1        0.0647
     40 H          -0.8166    1.8836   -0.0671 H       1  UNL1        0.0645
     41 H           5.6939    1.5614    1.4230 H       1  UNL1        0.0640
     42 H           7.8171    2.0384    2.3992 H       1  UNL1        0.0830
     43 H           9.3630   -1.3575    0.7314 H       1  UNL1        0.0830
     44 H           7.2696   -1.8970   -0.2751 H       1  UNL1        0.0640
@<TRIPOS>BOND
     1     1     2    2
     2     2     3   am
     3     2    24    1
     4     3     4    1
     5     4     5   am
     6     5     6    2
     7     5     7    1
     8     7     8   ar
     9     7    23   ar
    10     8     9   ar
    11     9    10   ar
    12    10    11   ar
    13    11    12    1
    14    11    23   ar
    15    12    13    2
    16    12    14    2
    17    12    15    1
    18    15    16    1
    19    16    17   ar
    20    16    21   ar
    21    17    18   ar
    22    18    19   ar
    23    19    20   ar
    24    20    21   ar
    25    21    22    1
    26    24    25   ar
    27    24    29   ar
    28    25    26   ar
    29    26    27   ar
    30    27    28   ar
    31    28    29   ar
    32     3    30    1
    33     4    31    1
    34     8    32    1
    35     9    33    1
    36    10    34    1
    37    15    35    1
    38    17    36    1
    39    18    37    1
    40    19    38    1
    41    20    39    1
    42    23    40    1
    43    25    41    1
    44    26    42    1
    45    28    43    1
    46    29    44    1
@<TRIPOS>MOLECULE
../data/bude_mols_rdkit_confs2/molecule_95.pdb
 44 46 0 0 0
SMALL
GASTEIGER

@<TRIPOS>ATOM
      1  O1        -3.3330   -1.3900   -0.1810 O.2     1  UNL1       -0.2687
      2  C1        -4.2240   -0.6160    0.3160 C.2     1  UNL1        0.2602
      3  N1        -3.7990    0.4240    1.1690 N.am    1  UNL1       -0.2301
      4  N2        -2.4670    0.6770    1.5180 N.am    1  UNL1       -0.2301
      5  C2        -1.4480    0.9740    0.5950 C.2     1  UNL1        0.2602
      6  O2        -1.8020    1.0050   -0.6260 O.2     1  UNL1       -0.2687
      7  C3        -0.0620    1.2390    0.9410 C.ar    1  UNL1        0.0400
      8  C4         0.4170    1.2430    2.2310 C.ar    1  UNL1       -0.0495
      9  C5         1.7370    1.4960    2.5580 C.ar    1  UNL1       -0.0592
     10  C6         2.6470    1.7640    1.5310 C.ar    1  UNL1       -0.0350
     11  C7         2.1980    1.7660    0.2330 C.ar    1  UNL1        0.1092
     12  S1         3.2910    2.0850   -1.0740 S.O2    1  UNL1        0.0724
     13  O3         2.5400    2.9370   -2.0690 O.2     1  UNL1       -0.1500
     14  O4         4.4550    2.8860   -0.5080 O.2     1  UNL1       -0.1500
     15  N3         3.9310    0.6820   -1.8070 N.pl3   1  UNL1       -0.2135
     16  C8         4.7210   -0.2880   -1.1780 C.ar    1  UNL1        0.0831
     17  C9         5.3710    0.0070    0.0030 C.ar    1  UNL1       -0.0365
     18  C10        6.1560   -0.9880    0.5930 C.ar    1  UNL1       -0.0598
     19  C11        6.2790   -2.2200    0.0210 C.ar    1  UNL1       -0.0589
     20  C12        5.6140   -2.5000   -1.1760 C.ar    1  UNL1       -0.0246
     21  C13        4.8420   -1.5370   -1.7660 C.ar    1  UNL1        0.1456
     22  F1         4.2070   -1.8180   -2.9160 F       1  UNL1       -0.2035
     23  C14        0.8560    1.5060   -0.0520 C.ar    1  UNL1       -0.0229
     24  C15       -5.6010   -0.8840   -0.0490 C.ar    1  UNL1        0.0410
     25  C16       -6.6290   -0.1200    0.4400 C.ar    1  UNL1       -0.0314
     26  C17       -7.9600   -0.3630    0.0990 C.ar    1  UNL1        0.0283
     27  N4        -8.2650   -1.3720   -0.7310 N.ar    1  UNL1       -0.2632
     28  C18       -7.2760   -2.1440   -1.2290 C.ar    1  UNL1        0.0283
     29  C19       -5.9490   -1.9140   -0.8990 C.ar    1  UNL1       -0.0314
     30 H          -4.4897    1.0153    1.5466 H       1  UNL1        0.1731
     31 H          -2.2278    0.6449    2.4724 H       1  UNL1        0.1731
     32 H          -0.2456    1.0462    2.9973 H       1  UNL1        0.0625
     33 H           2.0448    1.4871    3.5430 H       1  UNL1        0.0618
     34 H           3.6381    1.9568    1.7443 H       1  UNL1        0.0637
     35 H           3.7257    0.5422   -2.7596 H       1  UNL1        0.1738
     36 H           5.2800    0.9378    0.4393 H       1  UNL1        0.0637
     37 H           6.6507   -0.7869    1.4761 H       1  UNL1        0.0618
     38 H           6.8615   -2.9435    0.4708 H       1  UNL1        0.0618
     39 H           5.7051   -3.4303   -1.6134 H       1  UNL1        0.0647
     40 H           0.5422    1.5140   -1.0351 H       1  UNL1        0.0645
     41 H          -6.4115    0.6594    1.0805 H       1  UNL1        0.0640
     42 H          -8.7091    0.2328    0.4849 H       1  UNL1        0.0830
     43 H          -7.5119   -2.9199   -1.8673 H       1  UNL1        0.0830
     44 H          -5.2129   -2.5202   -1.2937 H       1  UNL1        0.0640
@<TRIPOS>BOND
     1     1     2    2
     2     2     3   am
     3     2    24    1
     4     3     4    1
     5     4     5   am
     6     5     6    2
     7     5     7    1
     8     7     8   ar
     9     7    23   ar
    10     8     9   ar
    11     9    10   ar
    12    10    11   ar
    13    11    12    1
    14    11    23   ar
    15    12    13    2
    16    12    14    2
    17    12    15    1
    18    15    16    1
    19    16    17   ar
    20    16    21   ar
    21    17    18   ar
    22    18    19   ar
    23    19    20   ar
    24    20    21   ar
    25    21    22    1
    26    24    25   ar
    27    24    29   ar
    28    25    26   ar
    29    26    27   ar
    30    27    28   ar
    31    28    29   ar
    32     3    30    1
    33     4    31    1
    34     8    32    1
    35     9    33    1
    36    10    34    1
    37    15    35    1
    38    17    36    1
    39    18    37    1
    40    19    38    1
    41    20    39    1
    42    23    40    1
    43    25    41    1
    44    26    42    1
    45    28    43    1
    46    29    44    1
@<TRIPOS>MOLECULE
../data/bude_mols_rdkit_confs2/molecule_95.pdb
 44 46 0 0 0
SMALL
GASTEIGER

@<TRIPOS>ATOM
      1  O1        -3.1390    1.5010   -0.0250 O.2     1  UNL1       -0.2687
      2  C1        -3.9460    0.7990   -0.6740 C.2     1  UNL1        0.2602
      3  N1        -3.5590   -0.5290   -0.9930 N.am    1  UNL1       -0.2301
      4  N2        -2.3280   -1.0070   -0.5980 N.am    1  UNL1       -0.2301
      5  C2        -1.7460   -0.9450    0.6950 C.2     1  UNL1        0.2602
      6  O2        -2.4250   -0.3910    1.6030 O.2     1  UNL1       -0.2687
      7  C3        -0.4190   -1.5010    0.9440 C.ar    1  UNL1        0.0400
      8  C4        -0.0180   -2.7350    0.4910 C.ar    1  UNL1       -0.0495
      9  C5         1.2460   -3.2370    0.7120 C.ar    1  UNL1       -0.0592
     10  C6         2.1580   -2.4790    1.4140 C.ar    1  UNL1       -0.0350
     11  C7         1.7960   -1.2420    1.8820 C.ar    1  UNL1        0.1092
     12  S1         2.9380   -0.2680    2.7590 S.O2    1  UNL1        0.0724
     13  O3         3.8770   -1.1750    3.5430 O.2     1  UNL1       -0.1500
     14  O4         2.1110    0.4320    3.8400 O.2     1  UNL1       -0.1500
     15  N3         3.7590    0.8950    1.8550 N.pl3   1  UNL1       -0.2135
     16  C8         4.6190    0.6910    0.7520 C.ar    1  UNL1        0.0831
     17  C9         4.2800   -0.1160   -0.3170 C.ar    1  UNL1       -0.0365
     18  C10        5.1020   -0.2930   -1.4080 C.ar    1  UNL1       -0.0598
     19  C11        6.3230    0.3500   -1.4660 C.ar    1  UNL1       -0.0589
     20  C12        6.6950    1.1530   -0.4350 C.ar    1  UNL1       -0.0246
     21  C13        5.8460    1.3070    0.6410 C.ar    1  UNL1        0.1456
     22  F1         6.2470    2.1110    1.6450 F       1  UNL1       -0.2035
     23  C14        0.5230   -0.7760    1.6420 C.ar    1  UNL1       -0.0229
     24  C15       -5.2320    1.2990   -1.0920 C.ar    1  UNL1        0.0410
     25  C16       -5.9410    2.1140   -0.2070 C.ar    1  UNL1       -0.0314
     26  C17       -7.1550    2.6010   -0.5940 C.ar    1  UNL1        0.0283
     27  N4        -7.6830    2.3200   -1.7930 N.ar    1  UNL1       -0.2632
     28  C18       -7.0010    1.5240   -2.6710 C.ar    1  UNL1        0.0283
     29  C19       -5.7900    1.0260   -2.3100 C.ar    1  UNL1       -0.0314
     30 H          -4.1720   -1.1106   -1.4981 H       1  UNL1        0.1731
     31 H          -1.7881   -1.4435   -1.2960 H       1  UNL1        0.1731
     32 H          -0.6925   -3.3103   -0.0373 H       1  UNL1        0.0625
     33 H           1.5067   -4.1699    0.3559 H       1  UNL1        0.0618
     34 H           3.1090   -2.8407    1.5867 H       1  UNL1        0.0637
     35 H           3.6226    1.8307    2.1291 H       1  UNL1        0.1738
     36 H           3.3725   -0.6070   -0.2972 H       1  UNL1        0.0637
     37 H           4.8053   -0.9067   -2.1828 H       1  UNL1        0.0618
     38 H           6.9437    0.2224   -2.2805 H       1  UNL1        0.0618
     39 H           7.6032    1.6425   -0.4568 H       1  UNL1        0.0647
     40 H           0.2628    0.1562    2.0001 H       1  UNL1        0.0645
     41 H          -5.5540    2.3434    0.7218 H       1  UNL1        0.0640
     42 H          -7.6827    3.2041    0.0563 H       1  UNL1        0.0830
     43 H          -7.4014    1.3043   -3.5964 H       1  UNL1        0.0830
     44 H          -5.2768    0.4248   -2.9735 H       1  UNL1        0.0640
@<TRIPOS>BOND
     1     1     2    2
     2     2     3   am
     3     2    24    1
     4     3     4    1
     5     4     5   am
     6     5     6    2
     7     5     7    1
     8     7     8   ar
     9     7    23   ar
    10     8     9   ar
    11     9    10   ar
    12    10    11   ar
    13    11    12    1
    14    11    23   ar
    15    12    13    2
    16    12    14    2
    17    12    15    1
    18    15    16    1
    19    16    17   ar
    20    16    21   ar
    21    17    18   ar
    22    18    19   ar
    23    19    20   ar
    24    20    21   ar
    25    21    22    1
    26    24    25   ar
    27    24    29   ar
    28    25    26   ar
    29    26    27   ar
    30    27    28   ar
    31    28    29   ar
    32     3    30    1
    33     4    31    1
    34     8    32    1
    35     9    33    1
    36    10    34    1
    37    15    35    1
    38    17    36    1
    39    18    37    1
    40    19    38    1
    41    20    39    1
    42    23    40    1
    43    25    41    1
    44    26    42    1
    45    28    43    1
    46    29    44    1
@<TRIPOS>MOLECULE
../data/bude_mols_rdkit_confs2/molecule_95.pdb
 44 46 0 0 0
SMALL
GASTEIGER

@<TRIPOS>ATOM
      1  O1         4.4280    1.9490   -0.0360 O.2     1  UNL1       -0.2687
      2  C1         4.8950    0.7790    0.1410 C.2     1  UNL1        0.2602
      3  N1         4.0190   -0.2170    0.6290 N.am    1  UNL1       -0.2301
      4  N2         2.6530    0.0260    0.9290 N.am    1  UNL1       -0.2301
      5  C2         1.6350   -0.5930    0.1660 C.2     1  UNL1        0.2602
      6  O2         1.9900   -1.3650   -0.7820 O.2     1  UNL1       -0.2687
      7  C3         0.2220   -0.3700    0.4390 C.ar    1  UNL1        0.0400
      8  C4        -0.2420    0.6110    1.2840 C.ar    1  UNL1       -0.0495
      9  C5        -1.5880    0.8140    1.5410 C.ar    1  UNL1       -0.0592
     10  C6        -2.5360    0.0130    0.9370 C.ar    1  UNL1       -0.0350
     11  C7        -2.0980   -0.9770    0.0860 C.ar    1  UNL1        0.1092
     12  S1        -3.2610   -2.0350   -0.7340 S.O2    1  UNL1        0.0724
     13  O3        -2.8190   -3.4390   -0.4350 O.2     1  UNL1       -0.1500
     14  O4        -3.1610   -1.7700   -2.2170 O.2     1  UNL1       -0.1500
     15  N3        -4.8380   -1.8060   -0.1520 N.pl3   1  UNL1       -0.2135
     16  C8        -5.5940   -0.6090   -0.2240 C.ar    1  UNL1        0.0831
     17  C9        -5.2690    0.3360   -1.1720 C.ar    1  UNL1       -0.0365
     18  C10       -6.0000    1.5250   -1.2890 C.ar    1  UNL1       -0.0598
     19  C11       -7.0580    1.7260   -0.4260 C.ar    1  UNL1       -0.0589
     20  C12       -7.4080    0.7930    0.5390 C.ar    1  UNL1       -0.0246
     21  C13       -6.6540   -0.3750    0.6200 C.ar    1  UNL1        0.1456
     22  F1        -6.9890   -1.2950    1.5580 F       1  UNL1       -0.2035
     23  C14       -0.7560   -1.1690   -0.1620 C.ar    1  UNL1       -0.0229
     24  C15        6.2960    0.5440   -0.1710 C.ar    1  UNL1        0.0410
     25  C16        7.0820    1.5510   -0.6830 C.ar    1  UNL1       -0.0314
     26  C17        8.4090    1.3600   -0.9850 C.ar    1  UNL1        0.0283
     27  N4         8.9610    0.1600   -0.7770 N.ar    1  UNL1       -0.2632
     28  C18        8.2190   -0.8370   -0.2810 C.ar    1  UNL1        0.0283
     29  C19        6.8780   -0.6860    0.0370 C.ar    1  UNL1       -0.0314
     30 H           4.3739   -1.1247    0.7678 H       1  UNL1        0.1731
     31 H           2.4131    0.6274    1.6706 H       1  UNL1        0.1731
     32 H           0.4452    1.2250    1.7486 H       1  UNL1        0.0625
     33 H          -1.8823    1.5650    2.1848 H       1  UNL1        0.0618
     34 H          -3.5425    0.1518    1.1177 H       1  UNL1        0.0637
     35 H          -5.2700   -2.5794    0.2774 H       1  UNL1        0.1738
     36 H          -4.4735    0.1651   -1.8068 H       1  UNL1        0.0637
     37 H          -5.7543    2.2309   -2.0006 H       1  UNL1        0.0618
     38 H          -7.6058    2.5974   -0.5009 H       1  UNL1        0.0618
     39 H          -8.2021    0.9592    1.1768 H       1  UNL1        0.0647
     40 H          -0.4657   -1.9206   -0.8068 H       1  UNL1        0.0645
     41 H           6.6614    2.4793   -0.8454 H       1  UNL1        0.0640
     42 H           8.9734    2.1344   -1.3682 H       1  UNL1        0.0830
     43 H           8.6632   -1.7560   -0.1289 H       1  UNL1        0.0830
     44 H           6.3315   -1.4737    0.4189 H       1  UNL1        0.0640
@<TRIPOS>BOND
     1     1     2    2
     2     2     3   am
     3     2    24    1
     4     3     4    1
     5     4     5   am
     6     5     6    2
     7     5     7    1
     8     7     8   ar
     9     7    23   ar
    10     8     9   ar
    11     9    10   ar
    12    10    11   ar
    13    11    12    1
    14    11    23   ar
    15    12    13    2
    16    12    14    2
    17    12    15    1
    18    15    16    1
    19    16    17   ar
    20    16    21   ar
    21    17    18   ar
    22    18    19   ar
    23    19    20   ar
    24    20    21   ar
    25    21    22    1
    26    24    25   ar
    27    24    29   ar
    28    25    26   ar
    29    26    27   ar
    30    27    28   ar
    31    28    29   ar
    32     3    30    1
    33     4    31    1
    34     8    32    1
    35     9    33    1
    36    10    34    1
    37    15    35    1
    38    17    36    1
    39    18    37    1
    40    19    38    1
    41    20    39    1
    42    23    40    1
    43    25    41    1
    44    26    42    1
    45    28    43    1
    46    29    44    1
@<TRIPOS>MOLECULE
../data/bude_mols_rdkit_confs2/molecule_95.pdb
 44 46 0 0 0
SMALL
GASTEIGER

@<TRIPOS>ATOM
      1  O1        -4.6420   -1.4840    0.1730 O.2     1  UNL1       -0.2687
      2  C1        -4.6290   -0.2420   -0.0450 C.2     1  UNL1        0.2602
      3  N1        -3.4000    0.4560   -0.1250 N.am    1  UNL1       -0.2301
      4  N2        -2.1730   -0.1860    0.0350 N.am    1  UNL1       -0.2301
      5  C2        -1.2060   -0.2780   -1.0220 C.2     1  UNL1        0.2602
      6  O2        -1.4820    0.2500   -2.1540 O.2     1  UNL1       -0.2687
      7  C3         0.0410   -0.9740   -0.7530 C.ar    1  UNL1        0.0400
      8  C4         0.4400   -1.9030   -1.7090 C.ar    1  UNL1       -0.0495
      9  C5         1.5870   -2.6380   -1.5570 C.ar    1  UNL1       -0.0592
     10  C6         2.3530   -2.4370   -0.4200 C.ar    1  UNL1       -0.0350
     11  C7         1.9990   -1.5260    0.5500 C.ar    1  UNL1        0.1092
     12  S1         3.0010   -1.3810    1.9520 S.O2    1  UNL1        0.0724
     13  O3         2.8660   -2.5900    2.8650 O.2     1  UNL1       -0.1500
     14  O4         2.4520   -0.2230    2.8050 O.2     1  UNL1       -0.1500
     15  N3         4.6520   -1.0930    1.6420 N.pl3   1  UNL1       -0.2135
     16  C8         5.1230    0.0350    0.9720 C.ar    1  UNL1        0.0831
     17  C9         4.2830    0.8610    0.2790 C.ar    1  UNL1       -0.0365
     18  C10        4.7250    1.9840   -0.4180 C.ar    1  UNL1       -0.0598
     19  C11        6.0620    2.3040   -0.4280 C.ar    1  UNL1       -0.0589
     20  C12        6.9210    1.4760    0.2720 C.ar    1  UNL1       -0.0246
     21  C13        6.4900    0.3580    0.9660 C.ar    1  UNL1        0.1456
     22  F1         7.3100   -0.4430    1.6500 F       1  UNL1       -0.2035
     23  C14        0.8240   -0.8110    0.3380 C.ar    1  UNL1       -0.0229
     24  C15       -5.8760    0.4980   -0.2210 C.ar    1  UNL1        0.0410
     25  C16       -5.9440    1.8650   -0.0820 C.ar    1  UNL1       -0.0314
     26  C17       -7.1420    2.5430   -0.2690 C.ar    1  UNL1        0.0283
     27  N4        -8.2480    1.8710   -0.5900 N.ar    1  UNL1       -0.2632
     28  C18       -8.2020    0.5380   -0.7290 C.ar    1  UNL1        0.0283
     29  C19       -7.0510   -0.1770   -0.5560 C.ar    1  UNL1       -0.0314
     30 H          -3.4122    1.4249   -0.2990 H       1  UNL1        0.1731
     31 H          -1.9614   -0.5920    0.9066 H       1  UNL1        0.1731
     32 H          -0.1404   -2.0417   -2.5510 H       1  UNL1        0.0625
     33 H           1.8732   -3.3246   -2.2723 H       1  UNL1        0.0618
     34 H           3.2168   -2.9879   -0.2961 H       1  UNL1        0.0637
     35 H           5.3077   -1.7585    1.9525 H       1  UNL1        0.1738
     36 H           3.2743    0.6429    0.2715 H       1  UNL1        0.0637
     37 H           4.0489    2.5751   -0.9264 H       1  UNL1        0.0618
     38 H           6.4114    3.1302   -0.9382 H       1  UNL1        0.0618
     39 H           7.9280    1.7016    0.2772 H       1  UNL1        0.0647
     40 H           0.5353   -0.1213    1.0493 H       1  UNL1        0.0645
     41 H          -5.0931    2.3942    0.1647 H       1  UNL1        0.0640
     42 H          -7.1760    3.5686   -0.1593 H       1  UNL1        0.0830
     43 H          -9.0680    0.0338   -0.9757 H       1  UNL1        0.0830
     44 H          -7.0501   -1.2025   -0.6714 H       1  UNL1        0.0640
@<TRIPOS>BOND
     1     1     2    2
     2     2     3   am
     3     2    24    1
     4     3     4    1
     5     4     5   am
     6     5     6    2
     7     5     7    1
     8     7     8   ar
     9     7    23   ar
    10     8     9   ar
    11     9    10   ar
    12    10    11   ar
    13    11    12    1
    14    11    23   ar
    15    12    13    2
    16    12    14    2
    17    12    15    1
    18    15    16    1
    19    16    17   ar
    20    16    21   ar
    21    17    18   ar
    22    18    19   ar
    23    19    20   ar
    24    20    21   ar
    25    21    22    1
    26    24    25   ar
    27    24    29   ar
    28    25    26   ar
    29    26    27   ar
    30    27    28   ar
    31    28    29   ar
    32     3    30    1
    33     4    31    1
    34     8    32    1
    35     9    33    1
    36    10    34    1
    37    15    35    1
    38    17    36    1
    39    18    37    1
    40    19    38    1
    41    20    39    1
    42    23    40    1
    43    25    41    1
    44    26    42    1
    45    28    43    1
    46    29    44    1
