@<TRIPOS>MOLECULE
../data/bude_mols_rdkit_confs2/molecule_19.pdb
 49 52 0 0 0
SMALL
GASTEIGER

@<TRIPOS>ATOM
      1  O1         0.0510   -2.9750    0.3120 O.2     1  UNL1       -0.2756
      2  C1         0.0860   -1.7430    0.5460 C.2     1  UNL1        0.2161
      3  C2        -1.1220   -0.9360    0.2730 C.3     1  UNL1        0.0309
      4  C3        -2.2120   -1.8360   -0.2460 C.3     1  UNL1        0.0138
      5  C4        -3.4050   -1.0290   -0.5150 C.ar    1  UNL1        0.1108
      6  N1        -4.3120   -0.8490    0.4620 N.ar    1  UNL1       -0.2337
      7  C5        -5.4120   -0.1210    0.2540 C.ar    1  UNL1        0.0781
      8  C6        -6.3720    0.0890    1.2360 C.ar    1  UNL1       -0.0355
      9  C7        -7.5000    0.8460    0.9950 C.ar    1  UNL1       -0.0597
     10  C8        -7.6860    1.4110   -0.2500 C.ar    1  UNL1       -0.0609
     11  C9        -6.7440    1.2220   -1.2590 C.ar    1  UNL1       -0.0474
     12  C10       -5.6290    0.4590   -0.9780 C.ar    1  UNL1        0.0647
     13  C11       -4.6700    0.2490   -1.9590 C.ar    1  UNL1        0.2592
     14  O2        -4.8530    0.7730   -3.0960 O.2     1  UNL1       -0.2672
     15  N2        -3.5690   -0.4870   -1.7310 N.ar    1  UNL1       -0.3103
     16  N3         1.2550   -1.1650    1.0550 N.am    1  UNL1       -0.2985
     17  C12        2.4090   -1.9750    1.3070 C.3     1  UNL1        0.0304
     18  C13        3.4920   -1.4590    0.3500 C.3     1  UNL1        0.0280
     19  N4         3.6250   -0.0220    0.4630 N.pl3   1  UNL1       -0.3269
     20  C14        4.8170    0.5360   -0.0670 C.ar    1  UNL1        0.0299
     21  C15        5.7910   -0.2050   -0.7140 C.ar    1  UNL1       -0.0379
     22  C16        6.9320    0.3750   -1.2110 C.ar    1  UNL1       -0.0247
     23  C17        7.1560    1.7230   -1.0850 C.ar    1  UNL1        0.1235
     24  F1         8.2640    2.3220   -1.5600 F       1  UNL1       -0.2055
     25  C18        6.1930    2.4750   -0.4420 C.ar    1  UNL1       -0.0247
     26  C19        5.0550    1.8840    0.0510 C.ar    1  UNL1       -0.0379
     27  C20        2.6640    0.8450    1.0520 C.3     1  UNL1        0.0280
     28  C21        1.3220    0.2370    1.3340 C.3     1  UNL1        0.0304
     29 H          -0.8956   -0.1893   -0.4592 H       1  UNL1        0.0362
     30 H          -1.4476   -0.4601    1.1743 H       1  UNL1        0.0362
     31 H          -2.4406   -2.5823    0.4859 H       1  UNL1        0.0348
     32 H          -1.8883   -2.3161   -1.1458 H       1  UNL1        0.0348
     33 H          -6.2381   -0.3316    2.1688 H       1  UNL1        0.0639
     34 H          -8.1994    0.9886    1.7403 H       1  UNL1        0.0618
     35 H          -8.5286    1.9774   -0.4351 H       1  UNL1        0.0618
     36 H          -6.8767    1.6418   -2.1924 H       1  UNL1        0.0626
     37 H          -2.8991   -0.6250   -2.4391 H       1  UNL1        0.1700
     38 H           2.1939   -3.0040    1.1077 H       1  UNL1        0.0480
     39 H           2.7210   -1.9129    2.3286 H       1  UNL1        0.0480
     40 H           3.2227   -1.7099   -0.6547 H       1  UNL1        0.0479
     41 H           4.4258   -1.9143    0.6061 H       1  UNL1        0.0479
     42 H           5.6557   -1.2220   -0.8259 H       1  UNL1        0.0637
     43 H           7.6334   -0.2131   -1.6876 H       1  UNL1        0.0647
     44 H           6.3295    3.4918   -0.3305 H       1  UNL1        0.0647
     45 H           4.3541    2.4734    0.5268 H       1  UNL1        0.0637
     46 H           2.5171    1.6714    0.3883 H       1  UNL1        0.0479
     47 H           3.0652    1.1184    2.0055 H       1  UNL1        0.0479
     48 H           1.0941    0.3867    2.3687 H       1  UNL1        0.0480
     49 H           0.6187    0.7183    0.6870 H       1  UNL1        0.0480
@<TRIPOS>BOND
     1     1     2    2
     2     2     3    1
     3     2    16   am
     4     3     4    1
     5     4     5    1
     6     5     6   ar
     7     5    15   ar
     8     6     7   ar
     9     7     8   ar
    10     7    12   ar
    11     8     9   ar
    12     9    10   ar
    13    10    11   ar
    14    11    12   ar
    15    12    13   ar
    16    13    14    2
    17    13    15   ar
    18    16    17    1
    19    16    28    1
    20    17    18    1
    21    18    19    1
    22    19    20    1
    23    19    27    1
    24    20    21   ar
    25    20    26   ar
    26    21    22   ar
    27    22    23   ar
    28    23    24    1
    29    23    25   ar
    30    25    26   ar
    31    27    28    1
    32     3    29    1
    33     3    30    1
    34     4    31    1
    35     4    32    1
    36     8    33    1
    37     9    34    1
    38    10    35    1
    39    11    36    1
    40    15    37    1
    41    17    38    1
    42    17    39    1
    43    18    40    1
    44    18    41    1
    45    21    42    1
    46    22    43    1
    47    25    44    1
    48    26    45    1
    49    27    46    1
    50    27    47    1
    51    28    48    1
    52    28    49    1
@<TRIPOS>MOLECULE
../data/bude_mols_rdkit_confs2/molecule_19.pdb
 49 52 0 0 0
SMALL
GASTEIGER

@<TRIPOS>ATOM
      1  O1         0.9830   -1.9890    0.9710 O.2     1  UNL1       -0.2756
      2  C1         0.4850   -0.8580    1.0660 C.2     1  UNL1        0.2161
      3  C2         1.0620    0.1500    1.9540 C.3     1  UNL1        0.0309
      4  C3         2.4060   -0.1900    2.4640 C.3     1  UNL1        0.0138
      5  C4         3.3890   -0.3130    1.3500 C.ar    1  UNL1        0.1108
      6  N1         3.9220    0.8460    0.8410 N.ar    1  UNL1       -0.2337
      7  C5         4.8410    0.8700   -0.1240 C.ar    1  UNL1        0.0781
      8  C6         5.3750    2.0360   -0.6340 C.ar    1  UNL1       -0.0355
      9  C7         6.3250    2.0600   -1.6320 C.ar    1  UNL1       -0.0597
     10  C8         6.7710    0.8680   -2.1530 C.ar    1  UNL1       -0.0609
     11  C9         6.2470   -0.3240   -1.6550 C.ar    1  UNL1       -0.0474
     12  C10        5.2960   -0.3180   -0.6540 C.ar    1  UNL1        0.0647
     13  C11        4.7640   -1.4720   -0.1460 C.ar    1  UNL1        0.2592
     14  O2         5.1620   -2.5760   -0.6120 O.2     1  UNL1       -0.2672
     15  N2         3.8270   -1.4600    0.8420 N.ar    1  UNL1       -0.3103
     16  N3        -0.6830   -0.4860    0.3090 N.am    1  UNL1       -0.2985
     17  C12       -1.2490   -1.4840   -0.5610 C.3     1  UNL1        0.0304
     18  C13       -2.7590   -1.4530   -0.5190 C.3     1  UNL1        0.0280
     19  N4        -3.3130   -0.1290   -0.4000 N.pl3   1  UNL1       -0.3269
     20  C14       -4.7070    0.0280   -0.5710 C.ar    1  UNL1        0.0299
     21  C15       -5.3090    1.2580   -0.5810 C.ar    1  UNL1       -0.0379
     22  C16       -6.6840    1.4070   -0.7430 C.ar    1  UNL1       -0.0247
     23  C17       -7.4830    0.3000   -0.9010 C.ar    1  UNL1        0.1235
     24  F1        -8.8390    0.4300   -1.0620 F       1  UNL1       -0.2055
     25  C18       -6.8840   -0.9430   -0.8920 C.ar    1  UNL1       -0.0247
     26  C19       -5.5020   -1.0780   -0.7280 C.ar    1  UNL1       -0.0379
     27  C20       -2.5460    1.0580   -0.1130 C.3     1  UNL1        0.0280
     28  C21       -1.1970    0.8280    0.4730 C.3     1  UNL1        0.0304
     29 H           0.4071    0.2742    2.7910 H       1  UNL1        0.0362
     30 H           1.1698    1.0437    1.3756 H       1  UNL1        0.0362
     31 H           2.3550   -1.1209    2.9891 H       1  UNL1        0.0348
     32 H           2.7294    0.5937    3.1168 H       1  UNL1        0.0348
     33 H           5.0463    2.9351   -0.2486 H       1  UNL1        0.0639
     34 H           6.6954    2.9572   -1.9824 H       1  UNL1        0.0618
     35 H           7.4822    0.8561   -2.9007 H       1  UNL1        0.0618
     36 H           6.5746   -1.2237   -2.0400 H       1  UNL1        0.0626
     37 H           3.4698   -2.3113    1.1840 H       1  UNL1        0.1700
     38 H          -0.9110   -2.4504   -0.2499 H       1  UNL1        0.0480
     39 H          -0.9337   -1.2783   -1.5626 H       1  UNL1        0.0480
     40 H          -3.0845   -2.0310    0.3206 H       1  UNL1        0.0479
     41 H          -3.1036   -1.8510   -1.4505 H       1  UNL1        0.0479
     42 H          -4.7252    2.1011   -0.4648 H       1  UNL1        0.0637
     43 H          -7.1036    2.3499   -0.7444 H       1  UNL1        0.0647
     44 H          -7.4659   -1.7873   -1.0083 H       1  UNL1        0.0647
     45 H          -5.0767   -2.0183   -0.7251 H       1  UNL1        0.0637
     46 H          -3.1070    1.6533    0.5767 H       1  UNL1        0.0479
     47 H          -2.3772    1.5320   -1.0573 H       1  UNL1        0.0479
     48 H          -0.5146    1.5105    0.0111 H       1  UNL1        0.0480
     49 H          -1.3017    0.9767    1.5274 H       1  UNL1        0.0480
@<TRIPOS>BOND
     1     1     2    2
     2     2     3    1
     3     2    16   am
     4     3     4    1
     5     4     5    1
     6     5     6   ar
     7     5    15   ar
     8     6     7   ar
     9     7     8   ar
    10     7    12   ar
    11     8     9   ar
    12     9    10   ar
    13    10    11   ar
    14    11    12   ar
    15    12    13   ar
    16    13    14    2
    17    13    15   ar
    18    16    17    1
    19    16    28    1
    20    17    18    1
    21    18    19    1
    22    19    20    1
    23    19    27    1
    24    20    21   ar
    25    20    26   ar
    26    21    22   ar
    27    22    23   ar
    28    23    24    1
    29    23    25   ar
    30    25    26   ar
    31    27    28    1
    32     3    29    1
    33     3    30    1
    34     4    31    1
    35     4    32    1
    36     8    33    1
    37     9    34    1
    38    10    35    1
    39    11    36    1
    40    15    37    1
    41    17    38    1
    42    17    39    1
    43    18    40    1
    44    18    41    1
    45    21    42    1
    46    22    43    1
    47    25    44    1
    48    26    45    1
    49    27    46    1
    50    27    47    1
    51    28    48    1
    52    28    49    1
@<TRIPOS>MOLECULE
../data/bude_mols_rdkit_confs2/molecule_19.pdb
 49 52 0 0 0
SMALL
GASTEIGER

@<TRIPOS>ATOM
      1  O1        -0.9150   -1.8840   -1.0450 O.2     1  UNL1       -0.2756
      2  C1        -0.3510   -0.7980   -1.2850 C.2     1  UNL1        0.2161
      3  C2        -0.9550    0.2080   -2.1470 C.3     1  UNL1        0.0309
      4  C3        -2.2530   -0.1170   -2.7660 C.3     1  UNL1        0.0138
      5  C4        -3.3120   -0.3680   -1.7560 C.ar    1  UNL1        0.1108
      6  N1        -3.9580    0.6860   -1.1750 N.ar    1  UNL1       -0.2337
      7  C5        -4.9490    0.5200   -0.2900 C.ar    1  UNL1        0.0781
      8  C6        -5.5740    1.6460    0.2730 C.ar    1  UNL1       -0.0355
      9  C7        -6.5970    1.5280    1.1860 C.ar    1  UNL1       -0.0597
     10  C8        -6.9820    0.2490    1.5250 C.ar    1  UNL1       -0.0609
     11  C9        -6.3880   -0.8710    0.9910 C.ar    1  UNL1       -0.0474
     12  C10       -5.3620   -0.7440    0.0740 C.ar    1  UNL1        0.0647
     13  C11       -4.7300   -1.8020   -0.4960 C.ar    1  UNL1        0.2592
     14  O2        -5.1030   -2.9570   -0.1670 O.2     1  UNL1       -0.2672
     15  N2        -3.7390   -1.5840   -1.3810 N.ar    1  UNL1       -0.3103
     16  N3         0.9250   -0.5190   -0.7040 N.am    1  UNL1       -0.2985
     17  C12        1.5790    0.7180   -0.9730 C.3     1  UNL1        0.0304
     18  C13        2.4560    1.1310    0.1980 C.3     1  UNL1        0.0280
     19  N4         3.3330    0.0500    0.5120 N.pl3   1  UNL1       -0.3269
     20  C14        4.6470    0.3200    1.0140 C.ar    1  UNL1        0.0299
     21  C15        5.5770   -0.7100    1.1550 C.ar    1  UNL1       -0.0379
     22  C16        6.8380   -0.5050    1.6340 C.ar    1  UNL1       -0.0247
     23  C17        7.1810    0.7840    1.9860 C.ar    1  UNL1        0.1235
     24  F1         8.4320    1.0180    2.4660 F       1  UNL1       -0.2055
     25  C18        6.2840    1.8240    1.8580 C.ar    1  UNL1       -0.0247
     26  C19        5.0090    1.6000    1.3710 C.ar    1  UNL1       -0.0379
     27  C20        2.9700   -1.3410    0.3620 C.3     1  UNL1        0.0280
     28  C21        1.4920   -1.5520    0.1480 C.3     1  UNL1        0.0304
     29 H          -0.2637    0.4087   -2.9386 H       1  UNL1        0.0362
     30 H          -1.1611    1.0342   -1.4990 H       1  UNL1        0.0362
     31 H          -2.1371   -0.9938   -3.3682 H       1  UNL1        0.0348
     32 H          -2.5547    0.7242   -3.3544 H       1  UNL1        0.0348
     33 H          -5.2569    2.5876   -0.0061 H       1  UNL1        0.0639
     34 H          -7.0537    2.3572    1.5969 H       1  UNL1        0.0618
     35 H          -7.7468    0.1264    2.2070 H       1  UNL1        0.0618
     36 H          -6.7097   -1.8092    1.2762 H       1  UNL1        0.0626
     37 H          -3.2982   -2.3689   -1.7796 H       1  UNL1        0.1700
     38 H           0.8419    1.4747   -1.1432 H       1  UNL1        0.0480
     39 H           2.1967    0.5982   -1.8385 H       1  UNL1        0.0480
     40 H           1.8432    1.3562    1.0457 H       1  UNL1        0.0479
     41 H           3.0242    2.0005   -0.0590 H       1  UNL1        0.0479
     42 H           5.2997   -1.6669    0.8858 H       1  UNL1        0.0637
     43 H           7.5087   -1.2835    1.7292 H       1  UNL1        0.0647
     44 H           6.5671    2.7789    2.1283 H       1  UNL1        0.0647
     45 H           4.3395    2.3797    1.2766 H       1  UNL1        0.0637
     46 H           3.2634   -1.8659    1.2470 H       1  UNL1        0.0479
     47 H           3.4719   -1.7074   -0.5091 H       1  UNL1        0.0479
     48 H           1.3399   -2.5055   -0.3131 H       1  UNL1        0.0480
     49 H           1.0049   -1.5076    1.0997 H       1  UNL1        0.0480
@<TRIPOS>BOND
     1     1     2    2
     2     2     3    1
     3     2    16   am
     4     3     4    1
     5     4     5    1
     6     5     6   ar
     7     5    15   ar
     8     6     7   ar
     9     7     8   ar
    10     7    12   ar
    11     8     9   ar
    12     9    10   ar
    13    10    11   ar
    14    11    12   ar
    15    12    13   ar
    16    13    14    2
    17    13    15   ar
    18    16    17    1
    19    16    28    1
    20    17    18    1
    21    18    19    1
    22    19    20    1
    23    19    27    1
    24    20    21   ar
    25    20    26   ar
    26    21    22   ar
    27    22    23   ar
    28    23    24    1
    29    23    25   ar
    30    25    26   ar
    31    27    28    1
    32     3    29    1
    33     3    30    1
    34     4    31    1
    35     4    32    1
    36     8    33    1
    37     9    34    1
    38    10    35    1
    39    11    36    1
    40    15    37    1
    41    17    38    1
    42    17    39    1
    43    18    40    1
    44    18    41    1
    45    21    42    1
    46    22    43    1
    47    25    44    1
    48    26    45    1
    49    27    46    1
    50    27    47    1
    51    28    48    1
    52    28    49    1
@<TRIPOS>MOLECULE
../data/bude_mols_rdkit_confs2/molecule_19.pdb
 49 52 0 0 0
SMALL
GASTEIGER

@<TRIPOS>ATOM
      1  O1         1.3660    0.8340    1.6700 O.2     1  UNL1       -0.2756
      2  C1         0.7020   -0.1990    1.4890 C.2     1  UNL1        0.2161
      3  C2         1.1930   -1.5040    1.9280 C.3     1  UNL1        0.0309
      4  C3         2.6140   -1.4360    2.3980 C.3     1  UNL1        0.0138
      5  C4         3.4920   -1.0020    1.2810 C.ar    1  UNL1        0.1108
      6  N1         3.8170    0.2720    1.0200 N.ar    1  UNL1       -0.2337
      7  C5         4.6100    0.6590    0.0080 C.ar    1  UNL1        0.0781
      8  C6         4.9140    1.9990   -0.2150 C.ar    1  UNL1       -0.0355
      9  C7         5.7190    2.4120   -1.2400 C.ar    1  UNL1       -0.0597
     10  C8         6.2540    1.4680   -2.0890 C.ar    1  UNL1       -0.0609
     11  C9         5.9530    0.1260   -1.8700 C.ar    1  UNL1       -0.0474
     12  C10        5.1420   -0.2870   -0.8380 C.ar    1  UNL1        0.0647
     13  C11        4.8280   -1.6020   -0.5980 C.ar    1  UNL1        0.2592
     14  O2         5.3060   -2.5010   -1.3650 O.2     1  UNL1       -0.2672
     15  N2         4.0300   -1.9290    0.4290 N.ar    1  UNL1       -0.3103
     16  N3        -0.5570   -0.1120    0.8460 N.am    1  UNL1       -0.2985
     17  C12       -1.3860   -1.2860    0.6010 C.3     1  UNL1        0.0304
     18  C13       -2.4050   -0.8950   -0.4800 C.3     1  UNL1        0.0280
     19  N4        -3.1900    0.1890    0.0300 N.pl3   1  UNL1       -0.3269
     20  C14       -4.6140    0.2780   -0.0990 C.ar    1  UNL1        0.0299
     21  C15       -5.3490   -0.6210   -0.8440 C.ar    1  UNL1       -0.0379
     22  C16       -6.7360   -0.5220   -0.9540 C.ar    1  UNL1       -0.0247
     23  C17       -7.4300    0.4840   -0.3180 C.ar    1  UNL1        0.1235
     24  F1        -8.7860    0.5720   -0.4320 F       1  UNL1       -0.2055
     25  C18       -6.6990    1.3830    0.4270 C.ar    1  UNL1       -0.0247
     26  C19       -5.3230    1.2800    0.5330 C.ar    1  UNL1       -0.0379
     27  C20       -2.5070    1.2720    0.7180 C.3     1  UNL1        0.0280
     28  C21       -1.0290    1.1870    0.4230 C.3     1  UNL1        0.0304
     29 H           1.1317   -2.1902    1.1093 H       1  UNL1        0.0362
     30 H           0.5871   -1.8279    2.7483 H       1  UNL1        0.0362
     31 H           2.9226   -2.4025    2.7378 H       1  UNL1        0.0348
     32 H           2.6880   -0.7319    3.2003 H       1  UNL1        0.0348
     33 H           4.5157    2.7093    0.4189 H       1  UNL1        0.0639
     34 H           5.9226    3.4146   -1.3756 H       1  UNL1        0.0618
     35 H           6.8653    1.7496   -2.8713 H       1  UNL1        0.0618
     36 H           6.3523   -0.5837   -2.5040 H       1  UNL1        0.0626
     37 H           3.8213   -2.8797    0.5772 H       1  UNL1        0.1700
     38 H          -1.8933   -1.5720    1.4986 H       1  UNL1        0.0480
     39 H          -0.7902   -2.1161    0.2834 H       1  UNL1        0.0480
     40 H          -3.0373   -1.7289   -0.7029 H       1  UNL1        0.0479
     41 H          -1.9030   -0.6026   -1.3786 H       1  UNL1        0.0479
     42 H          -4.8597   -1.3869   -1.3328 H       1  UNL1        0.0637
     43 H          -7.2508   -1.2137   -1.5211 H       1  UNL1        0.0647
     44 H          -7.1876    2.1492    0.9162 H       1  UNL1        0.0647
     45 H          -4.8115    1.9730    1.1015 H       1  UNL1        0.0637
     46 H          -2.6679    1.1852    1.7723 H       1  UNL1        0.0479
     47 H          -2.8894    2.2126    0.3806 H       1  UNL1        0.0479
     48 H          -0.8618    1.3087   -0.6268 H       1  UNL1        0.0480
     49 H          -0.5033    1.9589    0.9453 H       1  UNL1        0.0480
@<TRIPOS>BOND
     1     1     2    2
     2     2     3    1
     3     2    16   am
     4     3     4    1
     5     4     5    1
     6     5     6   ar
     7     5    15   ar
     8     6     7   ar
     9     7     8   ar
    10     7    12   ar
    11     8     9   ar
    12     9    10   ar
    13    10    11   ar
    14    11    12   ar
    15    12    13   ar
    16    13    14    2
    17    13    15   ar
    18    16    17    1
    19    16    28    1
    20    17    18    1
    21    18    19    1
    22    19    20    1
    23    19    27    1
    24    20    21   ar
    25    20    26   ar
    26    21    22   ar
    27    22    23   ar
    28    23    24    1
    29    23    25   ar
    30    25    26   ar
    31    27    28    1
    32     3    29    1
    33     3    30    1
    34     4    31    1
    35     4    32    1
    36     8    33    1
    37     9    34    1
    38    10    35    1
    39    11    36    1
    40    15    37    1
    41    17    38    1
    42    17    39    1
    43    18    40    1
    44    18    41    1
    45    21    42    1
    46    22    43    1
    47    25    44    1
    48    26    45    1
    49    27    46    1
    50    27    47    1
    51    28    48    1
    52    28    49    1
@<TRIPOS>MOLECULE
../data/bude_mols_rdkit_confs2/molecule_19.pdb
 49 52 0 0 0
SMALL
GASTEIGER

@<TRIPOS>ATOM
      1  O1         0.0390    0.6870   -2.9620 O.2     1  UNL1       -0.2756
      2  C1         0.0590    0.1780   -1.8010 C.2     1  UNL1        0.2161
      3  C2        -1.2640   -0.0050   -1.1640 C.3     1  UNL1        0.0309
      4  C3        -2.4030    0.4210   -2.0210 C.3     1  UNL1        0.0138
      5  C4        -3.6700    0.1920   -1.2790 C.ar    1  UNL1        0.1108
      6  N1        -3.6920   -0.3150   -0.0370 N.ar    1  UNL1       -0.2337
      7  C5        -4.8220   -0.5300    0.6510 C.ar    1  UNL1        0.0781
      8  C6        -4.8260   -1.0590    1.9440 C.ar    1  UNL1       -0.0355
      9  C7        -6.0150   -1.2640    2.6140 C.ar    1  UNL1       -0.0597
     10  C8        -7.2200   -0.9420    2.0030 C.ar    1  UNL1       -0.0609
     11  C9        -7.2220   -0.4170    0.7200 C.ar    1  UNL1       -0.0474
     12  C10       -6.0160   -0.2240    0.0750 C.ar    1  UNL1        0.0647
     13  C11       -6.0010    0.2990   -1.2050 C.ar    1  UNL1        0.2592
     14  O2        -7.0830    0.5860   -1.7470 O.2     1  UNL1       -0.2672
     15  N2        -4.8420    0.5040   -1.8710 N.ar    1  UNL1       -0.3103
     16  N3         1.2810   -0.1630   -1.2220 N.am    1  UNL1       -0.2985
     17  C12        1.3480   -0.7400    0.0790 C.3     1  UNL1        0.0304
     18  C13        2.7560   -0.9140    0.5890 C.3     1  UNL1        0.0280
     19  N4         3.6470    0.1300    0.1390 N.pl3   1  UNL1       -0.3269
     20  C14        4.8310    0.3570    0.8800 C.ar    1  UNL1        0.0299
     21  C15        5.6220    1.4450    0.6130 C.ar    1  UNL1       -0.0379
     22  C16        6.7990    1.6720    1.3390 C.ar    1  UNL1       -0.0247
     23  C17        7.1980    0.8160    2.3400 C.ar    1  UNL1        0.1235
     24  F1         8.3480    1.0520    3.0400 F       1  UNL1       -0.2055
     25  C18        6.4010   -0.2750    2.6050 C.ar    1  UNL1       -0.0247
     26  C19        5.2440   -0.4910    1.8850 C.ar    1  UNL1       -0.0379
     27  C20        3.3810    0.9370   -1.0300 C.3     1  UNL1        0.0280
     28  C21        2.5050    0.0690   -1.9480 C.3     1  UNL1        0.0304
     29 H          -1.2869    0.5691   -0.2614 H       1  UNL1        0.0362
     30 H          -1.3825   -1.0530   -0.9836 H       1  UNL1        0.0362
     31 H          -2.4069   -0.1512   -2.9251 H       1  UNL1        0.0348
     32 H          -2.3066    1.4581   -2.2660 H       1  UNL1        0.0348
     33 H          -3.9326   -1.2984    2.4018 H       1  UNL1        0.0639
     34 H          -6.0088   -1.6563    3.5685 H       1  UNL1        0.0618
     35 H          -8.1105   -1.0930    2.5022 H       1  UNL1        0.0618
     36 H          -8.1104   -0.1743    0.2543 H       1  UNL1        0.0626
     37 H          -4.8531    0.8783   -2.7815 H       1  UNL1        0.1700
     38 H           0.8781   -1.7008    0.0478 H       1  UNL1        0.0480
     39 H           0.8526   -0.0669    0.7472 H       1  UNL1        0.0480
     40 H           3.1306   -1.8552    0.2445 H       1  UNL1        0.0479
     41 H           2.7197   -0.8684    1.6574 H       1  UNL1        0.0479
     42 H           5.3472    2.1046   -0.1316 H       1  UNL1        0.0637
     43 H           7.3780    2.4974    1.1186 H       1  UNL1        0.0647
     44 H           6.6715   -0.9372    3.3489 H       1  UNL1        0.0647
     45 H           4.6670   -1.3173    2.1070 H       1  UNL1        0.0637
     46 H           4.2960    1.1935   -1.5218 H       1  UNL1        0.0479
     47 H           2.8936    1.8541   -0.7727 H       1  UNL1        0.0479
     48 H           2.3026    0.5831   -2.8643 H       1  UNL1        0.0480
     49 H           2.9915   -0.8496   -2.2018 H       1  UNL1        0.0480
@<TRIPOS>BOND
     1     1     2    2
     2     2     3    1
     3     2    16   am
     4     3     4    1
     5     4     5    1
     6     5     6   ar
     7     5    15   ar
     8     6     7   ar
     9     7     8   ar
    10     7    12   ar
    11     8     9   ar
    12     9    10   ar
    13    10    11   ar
    14    11    12   ar
    15    12    13   ar
    16    13    14    2
    17    13    15   ar
    18    16    17    1
    19    16    28    1
    20    17    18    1
    21    18    19    1
    22    19    20    1
    23    19    27    1
    24    20    21   ar
    25    20    26   ar
    26    21    22   ar
    27    22    23   ar
    28    23    24    1
    29    23    25   ar
    30    25    26   ar
    31    27    28    1
    32     3    29    1
    33     3    30    1
    34     4    31    1
    35     4    32    1
    36     8    33    1
    37     9    34    1
    38    10    35    1
    39    11    36    1
    40    15    37    1
    41    17    38    1
    42    17    39    1
    43    18    40    1
    44    18    41    1
    45    21    42    1
    46    22    43    1
    47    25    44    1
    48    26    45    1
    49    27    46    1
    50    27    47    1
    51    28    48    1
    52    28    49    1
@<TRIPOS>MOLECULE
../data/bude_mols_rdkit_confs2/molecule_19.pdb
 49 52 0 0 0
SMALL
GASTEIGER

@<TRIPOS>ATOM
      1  O1        -1.3780   -1.8670    1.0210 O.2     1  UNL1       -0.2756
      2  C1        -0.5610   -1.0470    1.5620 C.2     1  UNL1        0.2161
      3  C2        -1.0720    0.0960    2.3560 C.3     1  UNL1        0.0309
      4  C3        -2.5580    0.2070    2.3000 C.3     1  UNL1        0.0138
      5  C4        -3.1000    0.4350    0.9440 C.ar    1  UNL1        0.1108
      6  N1        -4.4420    0.4760    0.8230 N.ar    1  UNL1       -0.2337
      7  C5        -5.0940    0.6810   -0.3200 C.ar    1  UNL1        0.0781
      8  C6        -6.4750    0.7170   -0.4090 C.ar    1  UNL1       -0.0355
      9  C7        -7.1280    0.9310   -1.6050 C.ar    1  UNL1       -0.0597
     10  C8        -6.3670    1.1120   -2.7350 C.ar    1  UNL1       -0.0609
     11  C9        -4.9710    1.0800   -2.6690 C.ar    1  UNL1       -0.0474
     12  C10       -4.3450    0.8650   -1.4630 C.ar    1  UNL1        0.0647
     13  C11       -2.9560    0.8220   -1.3340 C.ar    1  UNL1        0.2592
     14  O2        -2.2880    0.9890   -2.3740 O.2     1  UNL1       -0.2672
     15  N2        -2.3710    0.6110   -0.1480 N.ar    1  UNL1       -0.3103
     16  N3         0.8330   -1.2100    1.4200 N.am    1  UNL1       -0.2985
     17  C12        1.3080   -2.3330    0.6430 C.3     1  UNL1        0.0304
     18  C13        2.6260   -2.0710   -0.0320 C.3     1  UNL1        0.0280
     19  N4         3.3910   -1.0000    0.5790 N.pl3   1  UNL1       -0.3269
     20  C14        4.3210   -0.2180   -0.1700 C.ar    1  UNL1        0.0299
     21  C15        4.9160    0.9060    0.3480 C.ar    1  UNL1       -0.0379
     22  C16        5.8360    1.6860   -0.3600 C.ar    1  UNL1       -0.0247
     23  C17        6.1480    1.2890   -1.6420 C.ar    1  UNL1        0.1235
     24  F1         7.0400    2.0000   -2.3990 F       1  UNL1       -0.2055
     25  C18        5.5600    0.1600   -2.1810 C.ar    1  UNL1       -0.0247
     26  C19        4.6570   -0.5980   -1.4750 C.ar    1  UNL1       -0.0379
     27  C20        3.1500   -0.7960    1.9870 C.3     1  UNL1        0.0280
     28  C21        1.7080   -0.2570    2.0520 C.3     1  UNL1        0.0304
     29 H          -0.6451    0.9991    1.9725 H       1  UNL1        0.0362
     30 H          -0.7949   -0.0656    3.3768 H       1  UNL1        0.0362
     31 H          -2.8567    1.0247    2.9222 H       1  UNL1        0.0348
     32 H          -2.9483   -0.7323    2.6321 H       1  UNL1        0.0348
     33 H          -7.0342    0.5792    0.4474 H       1  UNL1        0.0639
     34 H          -8.1587    0.9545   -1.6500 H       1  UNL1        0.0618
     35 H          -6.8313    1.2733   -3.6424 H       1  UNL1        0.0618
     36 H          -4.4104    1.2176   -3.5244 H       1  UNL1        0.0626
     37 H          -1.3887    0.5864   -0.0870 H       1  UNL1        0.1700
     38 H           0.5802   -2.5590   -0.1081 H       1  UNL1        0.0480
     39 H           1.4539   -3.1489    1.3197 H       1  UNL1        0.0480
     40 H           2.4372   -1.8116   -1.0528 H       1  UNL1        0.0479
     41 H           3.2082   -2.9639    0.0611 H       1  UNL1        0.0479
     42 H           4.6716    1.1899    1.3096 H       1  UNL1        0.0637
     43 H           6.2641    2.5254    0.0610 H       1  UNL1        0.0647
     44 H           5.8066   -0.1221   -3.1426 H       1  UNL1        0.0647
     45 H           4.2321   -1.4364   -1.9011 H       1  UNL1        0.0637
     46 H           3.8394   -0.0840    2.3903 H       1  UNL1        0.0479
     47 H           3.2777   -1.6920    2.5577 H       1  UNL1        0.0479
     48 H           1.4185   -0.1239    3.0735 H       1  UNL1        0.0480
     49 H           1.6468    0.6854    1.5490 H       1  UNL1        0.0480
@<TRIPOS>BOND
     1     1     2    2
     2     2     3    1
     3     2    16   am
     4     3     4    1
     5     4     5    1
     6     5     6   ar
     7     5    15   ar
     8     6     7   ar
     9     7     8   ar
    10     7    12   ar
    11     8     9   ar
    12     9    10   ar
    13    10    11   ar
    14    11    12   ar
    15    12    13   ar
    16    13    14    2
    17    13    15   ar
    18    16    17    1
    19    16    28    1
    20    17    18    1
    21    18    19    1
    22    19    20    1
    23    19    27    1
    24    20    21   ar
    25    20    26   ar
    26    21    22   ar
    27    22    23   ar
    28    23    24    1
    29    23    25   ar
    30    25    26   ar
    31    27    28    1
    32     3    29    1
    33     3    30    1
    34     4    31    1
    35     4    32    1
    36     8    33    1
    37     9    34    1
    38    10    35    1
    39    11    36    1
    40    15    37    1
    41    17    38    1
    42    17    39    1
    43    18    40    1
    44    18    41    1
    45    21    42    1
    46    22    43    1
    47    25    44    1
    48    26    45    1
    49    27    46    1
    50    27    47    1
    51    28    48    1
    52    28    49    1
@<TRIPOS>MOLECULE
../data/bude_mols_rdkit_confs2/molecule_19.pdb
 49 52 0 0 0
SMALL
GASTEIGER

@<TRIPOS>ATOM
      1  O1         1.1670    1.4710    0.3460 O.2     1  UNL1       -0.2756
      2  C1         0.5380    0.5230    0.8910 C.2     1  UNL1        0.2161
      3  C2         1.1670   -0.3020    1.9720 C.3     1  UNL1        0.0309
      4  C3         2.5890    0.0930    2.1580 C.3     1  UNL1        0.0138
      5  C4         3.4310   -0.1160    0.9640 C.ar    1  UNL1        0.1108
      6  N1         4.7310    0.2940    1.0200 N.ar    1  UNL1       -0.2337
      7  C5         5.5710    0.1330   -0.0160 C.ar    1  UNL1        0.0781
      8  C6         6.8930    0.5510    0.0430 C.ar    1  UNL1       -0.0355
      9  C7         7.7730    0.3970   -1.0060 C.ar    1  UNL1       -0.0597
     10  C8         7.3540   -0.1970   -2.1860 C.ar    1  UNL1       -0.0609
     11  C9         6.0400   -0.6130   -2.2450 C.ar    1  UNL1       -0.0474
     12  C10        5.1620   -0.4580   -1.1940 C.ar    1  UNL1        0.0647
     13  C11        3.8500   -0.8730   -1.2520 C.ar    1  UNL1        0.2592
     14  O2         3.4340   -1.4150   -2.3050 O.2     1  UNL1       -0.2672
     15  N2         3.0300   -0.6910   -0.1780 N.ar    1  UNL1       -0.3103
     16  N3        -0.7870    0.2610    0.4520 N.am    1  UNL1       -0.2985
     17  C12       -1.3890    1.0610   -0.5920 C.3     1  UNL1        0.0304
     18  C13       -2.7950    1.4230   -0.0970 C.3     1  UNL1        0.0280
     19  N4        -3.5110    0.1820    0.0620 N.pl3   1  UNL1       -0.3269
     20  C14       -4.9090    0.1210   -0.1530 C.ar    1  UNL1        0.0299
     21  C15       -5.6040   -1.0650   -0.1700 C.ar    1  UNL1       -0.0379
     22  C16       -6.9720   -1.1510   -0.3720 C.ar    1  UNL1       -0.0247
     23  C17       -7.6600    0.0240   -0.5660 C.ar    1  UNL1        0.1235
     24  F1        -9.0020    0.0150   -0.7710 F       1  UNL1       -0.2055
     25  C18       -6.9840    1.2200   -0.5540 C.ar    1  UNL1       -0.0247
     26  C19       -5.6090    1.2850   -0.3480 C.ar    1  UNL1       -0.0379
     27  C20       -2.8580   -1.0510    0.4540 C.3     1  UNL1        0.0280
     28  C21       -1.5090   -0.8260    1.0800 C.3     1  UNL1        0.0304
     29 H           1.1200   -1.3358    1.7002 H       1  UNL1        0.0362
     30 H           0.6372   -0.1405    2.8875 H       1  UNL1        0.0362
     31 H           2.9961   -0.4839    2.9620 H       1  UNL1        0.0348
     32 H           2.5946    1.1436    2.3608 H       1  UNL1        0.0348
     33 H           7.2317    0.9965    0.9101 H       1  UNL1        0.0639
     34 H           8.7470    0.7250   -0.9127 H       1  UNL1        0.0618
     35 H           7.9959   -0.3224   -2.9843 H       1  UNL1        0.0618
     36 H           5.7005   -1.0586   -3.1117 H       1  UNL1        0.0626
     37 H           2.0968   -0.9973   -0.2449 H       1  UNL1        0.1700
     38 H          -1.4489    0.5000   -1.5012 H       1  UNL1        0.0480
     39 H          -0.8095    1.9373   -0.7948 H       1  UNL1        0.0480
     40 H          -3.2895    2.0447   -0.8138 H       1  UNL1        0.0479
     41 H          -2.7508    1.9626    0.8259 H       1  UNL1        0.0479
     42 H          -5.0772   -1.9404   -0.0241 H       1  UNL1        0.0637
     43 H          -7.4564   -2.0622   -0.3767 H       1  UNL1        0.0647
     44 H          -7.5107    2.0951   -0.7019 H       1  UNL1        0.0647
     45 H          -5.1230    2.1954   -0.3420 H       1  UNL1        0.0637
     46 H          -2.7333   -1.6625   -0.4152 H       1  UNL1        0.0479
     47 H          -3.4775   -1.5231    1.1877 H       1  UNL1        0.0479
     48 H          -1.6444   -0.5961    2.1162 H       1  UNL1        0.0480
     49 H          -0.9344   -1.7192    0.9502 H       1  UNL1        0.0480
@<TRIPOS>BOND
     1     1     2    2
     2     2     3    1
     3     2    16   am
     4     3     4    1
     5     4     5    1
     6     5     6   ar
     7     5    15   ar
     8     6     7   ar
     9     7     8   ar
    10     7    12   ar
    11     8     9   ar
    12     9    10   ar
    13    10    11   ar
    14    11    12   ar
    15    12    13   ar
    16    13    14    2
    17    13    15   ar
    18    16    17    1
    19    16    28    1
    20    17    18    1
    21    18    19    1
    22    19    20    1
    23    19    27    1
    24    20    21   ar
    25    20    26   ar
    26    21    22   ar
    27    22    23   ar
    28    23    24    1
    29    23    25   ar
    30    25    26   ar
    31    27    28    1
    32     3    29    1
    33     3    30    1
    34     4    31    1
    35     4    32    1
    36     8    33    1
    37     9    34    1
    38    10    35    1
    39    11    36    1
    40    15    37    1
    41    17    38    1
    42    17    39    1
    43    18    40    1
    44    18    41    1
    45    21    42    1
    46    22    43    1
    47    25    44    1
    48    26    45    1
    49    27    46    1
    50    27    47    1
    51    28    48    1
    52    28    49    1
@<TRIPOS>MOLECULE
../data/bude_mols_rdkit_confs2/molecule_19.pdb
 49 52 0 0 0
SMALL
GASTEIGER

@<TRIPOS>ATOM
      1  O1        -0.2490   -1.3270   -3.1330 O.2     1  UNL1       -0.2756
      2  C1        -0.1080   -1.1230   -1.8790 C.2     1  UNL1        0.2161
      3  C2         1.1520   -0.5010   -1.4020 C.3     1  UNL1        0.0309
      4  C3         2.0760   -0.1560   -2.5500 C.3     1  UNL1        0.0138
      5  C4         3.3080    0.4620   -1.9850 C.ar    1  UNL1        0.1108
      6  N1         3.4610    0.6250   -0.6590 N.ar    1  UNL1       -0.2337
      7  C5         4.5160    1.1640   -0.0650 C.ar    1  UNL1        0.0781
      8  C6         4.5380    1.2680    1.3110 C.ar    1  UNL1       -0.0355
      9  C7         5.6580    1.8350    1.8760 C.ar    1  UNL1       -0.0597
     10  C8         6.7230    2.2870    1.1160 C.ar    1  UNL1       -0.0609
     11  C9         6.6500    2.1590   -0.2600 C.ar    1  UNL1       -0.0474
     12  C10        5.5700    1.6070   -0.8710 C.ar    1  UNL1        0.0647
     13  C11        5.4360    1.4500   -2.2380 C.ar    1  UNL1        0.2592
     14  O2         6.3920    1.8540   -2.9500 O.2     1  UNL1       -0.2672
     15  N2         4.3270    0.8910   -2.7530 N.ar    1  UNL1       -0.3103
     16  N3        -1.1140   -1.4750   -0.9620 N.am    1  UNL1       -0.2985
     17  C12       -0.9210   -1.2320    0.4440 C.3     1  UNL1        0.0304
     18  C13       -2.0570   -0.3280    0.8750 C.3     1  UNL1        0.0280
     19  N4        -3.3020   -1.0260    0.6260 N.pl3   1  UNL1       -0.3269
     20  C14       -4.4630   -0.5290    1.2850 C.ar    1  UNL1        0.0299
     21  C15       -5.6630   -1.1980    1.2560 C.ar    1  UNL1       -0.0379
     22  C16       -6.8020   -0.6960    1.9030 C.ar    1  UNL1       -0.0247
     23  C17       -6.7590    0.4840    2.5910 C.ar    1  UNL1        0.1235
     24  F1        -7.8880    0.9290    3.1990 F       1  UNL1       -0.2055
     25  C18       -5.5670    1.1700    2.6330 C.ar    1  UNL1       -0.0247
     26  C19       -4.4490    0.6720    1.9960 C.ar    1  UNL1       -0.0379
     27  C20       -3.3530   -2.1600   -0.2490 C.3     1  UNL1        0.0280
     28  C21       -2.3480   -2.0720   -1.3730 C.3     1  UNL1        0.0304
     29 H           1.6512   -1.1860   -0.7490 H       1  UNL1        0.0362
     30 H           0.9035    0.4052   -0.8901 H       1  UNL1        0.0362
     31 H           1.5931    0.5353   -3.2087 H       1  UNL1        0.0348
     32 H           2.3245   -1.0378   -3.1028 H       1  UNL1        0.0348
     33 H           3.7508    0.9359    1.8899 H       1  UNL1        0.0639
     34 H           5.7053    1.9263    2.9029 H       1  UNL1        0.0618
     35 H           7.5511    2.7091    1.5645 H       1  UNL1        0.0618
     36 H           7.4377    2.4921   -0.8376 H       1  UNL1        0.0626
     37 H           4.2574    0.7915   -3.7300 H       1  UNL1        0.1700
     38 H           0.0201   -0.7512    0.6118 H       1  UNL1        0.0480
     39 H          -0.9161   -2.1455    1.0011 H       1  UNL1        0.0480
     40 H          -2.0314    0.5814    0.3118 H       1  UNL1        0.0479
     41 H          -1.9670   -0.0863    1.9134 H       1  UNL1        0.0479
     42 H          -5.7279   -2.0924    0.7453 H       1  UNL1        0.0637
     43 H          -7.6863   -1.2261    1.8587 H       1  UNL1        0.0647
     44 H          -5.5087    2.0641    3.1450 H       1  UNL1        0.0647
     45 H          -3.5687    1.2081    2.0472 H       1  UNL1        0.0637
     46 H          -4.3343   -2.2235   -0.6709 H       1  UNL1        0.0479
     47 H          -3.1158   -3.0275    0.3307 H       1  UNL1        0.0479
     48 H          -2.1480   -3.0599   -1.7321 H       1  UNL1        0.0480
     49 H          -2.7693   -1.4524   -2.1369 H       1  UNL1        0.0480
@<TRIPOS>BOND
     1     1     2    2
     2     2     3    1
     3     2    16   am
     4     3     4    1
     5     4     5    1
     6     5     6   ar
     7     5    15   ar
     8     6     7   ar
     9     7     8   ar
    10     7    12   ar
    11     8     9   ar
    12     9    10   ar
    13    10    11   ar
    14    11    12   ar
    15    12    13   ar
    16    13    14    2
    17    13    15   ar
    18    16    17    1
    19    16    28    1
    20    17    18    1
    21    18    19    1
    22    19    20    1
    23    19    27    1
    24    20    21   ar
    25    20    26   ar
    26    21    22   ar
    27    22    23   ar
    28    23    24    1
    29    23    25   ar
    30    25    26   ar
    31    27    28    1
    32     3    29    1
    33     3    30    1
    34     4    31    1
    35     4    32    1
    36     8    33    1
    37     9    34    1
    38    10    35    1
    39    11    36    1
    40    15    37    1
    41    17    38    1
    42    17    39    1
    43    18    40    1
    44    18    41    1
    45    21    42    1
    46    22    43    1
    47    25    44    1
    48    26    45    1
    49    27    46    1
    50    27    47    1
    51    28    48    1
    52    28    49    1
@<TRIPOS>MOLECULE
../data/bude_mols_rdkit_confs2/molecule_19.pdb
 49 52 0 0 0
SMALL
GASTEIGER

@<TRIPOS>ATOM
      1  O1         0.9420    1.4400   -1.7450 O.2     1  UNL1       -0.2756
      2  C1         0.4970    1.5450   -0.5720 C.2     1  UNL1        0.2161
      3  C2         1.2510    2.0880    0.5630 C.3     1  UNL1        0.0309
      4  C3         2.6770    2.4480    0.3390 C.3     1  UNL1        0.0138
      5  C4         3.5470    1.3200   -0.0760 C.ar    1  UNL1        0.1108
      6  N1         4.0750    0.4850    0.8680 N.ar    1  UNL1       -0.2337
      7  C5         4.8910   -0.5200    0.5150 C.ar    1  UNL1        0.0781
      8  C6         5.4200   -1.3640    1.4990 C.ar    1  UNL1       -0.0355
      9  C7         6.2570   -2.4000    1.1630 C.ar    1  UNL1       -0.0597
     10  C8         6.5580   -2.5800   -0.1750 C.ar    1  UNL1       -0.0609
     11  C9         6.0530   -1.7670   -1.1590 C.ar    1  UNL1       -0.0474
     12  C10        5.2170   -0.7350   -0.8040 C.ar    1  UNL1        0.0647
     13  C11        4.6840    0.1130   -1.7820 C.ar    1  UNL1        0.2592
     14  O2         4.9720   -0.0730   -2.9830 O.2     1  UNL1       -0.2672
     15  N2         3.8750    1.0970   -1.3520 N.ar    1  UNL1       -0.3103
     16  N3        -0.8390    1.0920   -0.3890 N.am    1  UNL1       -0.2985
     17  C12       -1.4000    1.1930    0.9500 C.3     1  UNL1        0.0304
     18  C13       -2.8680    0.9240    0.9630 C.3     1  UNL1        0.0280
     19  N4        -3.3070   -0.0870    0.0240 N.pl3   1  UNL1       -0.3269
     20  C14       -4.6600   -0.5370    0.0600 C.ar    1  UNL1        0.0299
     21  C15       -5.1410   -1.5920   -0.6720 C.ar    1  UNL1       -0.0379
     22  C16       -6.4840   -1.9860   -0.6010 C.ar    1  UNL1       -0.0247
     23  C17       -7.3750   -1.3260    0.2110 C.ar    1  UNL1        0.1235
     24  F1        -8.6870   -1.6940    0.2950 F       1  UNL1       -0.2055
     25  C18       -6.9070   -0.2640    0.9540 C.ar    1  UNL1       -0.0247
     26  C19       -5.5880    0.1220    0.8830 C.ar    1  UNL1       -0.0379
     27  C20       -2.3810   -0.6210   -0.9320 C.3     1  UNL1        0.0280
     28  C21       -1.5760    0.5640   -1.4930 C.3     1  UNL1        0.0304
     29 H           1.2252    1.3559    1.3430 H       1  UNL1        0.0362
     30 H           0.7701    3.0173    0.7865 H       1  UNL1        0.0362
     31 H           3.0659    2.8498    1.2513 H       1  UNL1        0.0348
     32 H           2.6868    3.1486   -0.4697 H       1  UNL1        0.0348
     33 H           5.1779   -1.2057    2.4896 H       1  UNL1        0.0639
     34 H           6.6487   -3.0240    1.8856 H       1  UNL1        0.0618
     35 H           7.1854   -3.3541   -0.4434 H       1  UNL1        0.0618
     36 H           6.2968   -1.9278   -2.1488 H       1  UNL1        0.0626
     37 H           3.4945    1.7005   -2.0304 H       1  UNL1        0.1700
     38 H          -1.2264    2.1805    1.3237 H       1  UNL1        0.0480
     39 H          -0.9238    0.4575    1.5641 H       1  UNL1        0.0480
     40 H          -3.3760    1.8368    0.7314 H       1  UNL1        0.0479
     41 H          -3.0977    0.5498    1.9388 H       1  UNL1        0.0479
     42 H          -4.4974   -2.1092   -1.2912 H       1  UNL1        0.0637
     43 H          -6.8093   -2.7848   -1.1677 H       1  UNL1        0.0647
     44 H          -7.5547    0.2490    1.5723 H       1  UNL1        0.0647
     45 H          -5.2704    0.9216    1.4529 H       1  UNL1        0.0637
     46 H          -2.9108   -1.1115   -1.7217 H       1  UNL1        0.0479
     47 H          -1.7329   -1.3390   -0.4744 H       1  UNL1        0.0479
     48 H          -0.9093    0.2312   -2.2609 H       1  UNL1        0.0480
     49 H          -2.2154    1.3030   -1.9289 H       1  UNL1        0.0480
@<TRIPOS>BOND
     1     1     2    2
     2     2     3    1
     3     2    16   am
     4     3     4    1
     5     4     5    1
     6     5     6   ar
     7     5    15   ar
     8     6     7   ar
     9     7     8   ar
    10     7    12   ar
    11     8     9   ar
    12     9    10   ar
    13    10    11   ar
    14    11    12   ar
    15    12    13   ar
    16    13    14    2
    17    13    15   ar
    18    16    17    1
    19    16    28    1
    20    17    18    1
    21    18    19    1
    22    19    20    1
    23    19    27    1
    24    20    21   ar
    25    20    26   ar
    26    21    22   ar
    27    22    23   ar
    28    23    24    1
    29    23    25   ar
    30    25    26   ar
    31    27    28    1
    32     3    29    1
    33     3    30    1
    34     4    31    1
    35     4    32    1
    36     8    33    1
    37     9    34    1
    38    10    35    1
    39    11    36    1
    40    15    37    1
    41    17    38    1
    42    17    39    1
    43    18    40    1
    44    18    41    1
    45    21    42    1
    46    22    43    1
    47    25    44    1
    48    26    45    1
    49    27    46    1
    50    27    47    1
    51    28    48    1
    52    28    49    1
@<TRIPOS>MOLECULE
../data/bude_mols_rdkit_confs2/molecule_19.pdb
 49 52 0 0 0
SMALL
GASTEIGER

@<TRIPOS>ATOM
      1  O1         0.5900   -2.6210    0.4580 O.2     1  UNL1       -0.2756
      2  C1         0.4100   -1.6420   -0.3090 C.2     1  UNL1        0.2161
      3  C2        -0.9240   -1.0130   -0.3450 C.3     1  UNL1        0.0309
      4  C3        -1.8310   -1.7370    0.6160 C.3     1  UNL1        0.0138
      5  C4        -3.1730   -1.0830    0.5620 C.ar    1  UNL1        0.1108
      6  N1        -3.4650   -0.0610    1.3830 N.ar    1  UNL1       -0.2337
      7  C5        -4.6650    0.5370    1.3470 C.ar    1  UNL1        0.0781
      8  C6        -4.9770    1.5960    2.1930 C.ar    1  UNL1       -0.0355
      9  C7        -6.2150    2.2030    2.1470 C.ar    1  UNL1       -0.0597
     10  C8        -7.1910    1.7880    1.2640 C.ar    1  UNL1       -0.0609
     11  C9        -6.8840    0.7390    0.4240 C.ar    1  UNL1       -0.0474
     12  C10       -5.6490    0.1310    0.4690 C.ar    1  UNL1        0.0647
     13  C11       -5.3190   -0.9290   -0.3700 C.ar    1  UNL1        0.2592
     14  O2        -6.2060   -1.3100   -1.1760 O.2     1  UNL1       -0.2672
     15  N2        -4.1060   -1.5030   -0.3040 N.ar    1  UNL1       -0.3103
     16  N3         1.4940   -1.1640   -1.1230 N.am    1  UNL1       -0.2985
     17  C12        1.3300   -0.0370   -2.0210 C.3     1  UNL1        0.0304
     18  C13        2.4050    1.0160   -1.8430 C.3     1  UNL1        0.0280
     19  N4         3.5580    0.3710   -1.2460 N.pl3   1  UNL1       -0.3269
     20  C14        4.4100    0.9630   -0.2900 C.ar    1  UNL1        0.0299
     21  C15        4.2880    2.2840    0.0070 C.ar    1  UNL1       -0.0379
     22  C16        5.1190    2.8890    0.9590 C.ar    1  UNL1       -0.0247
     23  C17        6.0900    2.1760    1.6300 C.ar    1  UNL1        0.1235
     24  F1         6.8940    2.7640    2.5520 F       1  UNL1       -0.2055
     25  C18        6.2020    0.8390    1.3190 C.ar    1  UNL1       -0.0247
     26  C19        5.3680    0.2400    0.3660 C.ar    1  UNL1       -0.0379
     27  C20        3.7900   -1.0000   -1.7370 C.3     1  UNL1        0.0280
     28  C21        2.7670   -1.8500   -1.0160 C.3     1  UNL1        0.0304
     29 H          -1.3249   -1.0773   -1.3350 H       1  UNL1        0.0362
     30 H          -0.8469    0.0168   -0.0649 H       1  UNL1        0.0362
     31 H          -1.4350   -1.6730    1.6080 H       1  UNL1        0.0348
     32 H          -1.9088   -2.7701    0.3486 H       1  UNL1        0.0348
     33 H          -4.2710    1.9331    2.8660 H       1  UNL1        0.0639
     34 H          -6.4161    2.9862    2.7883 H       1  UNL1        0.0618
     35 H          -8.1155    2.2456    1.2337 H       1  UNL1        0.0618
     36 H          -7.5908    0.4039   -0.2492 H       1  UNL1        0.0626
     37 H          -3.8969   -2.2520   -0.9077 H       1  UNL1        0.1700
     38 H           0.3769    0.4125   -1.8352 H       1  UNL1        0.0480
     39 H           1.4050   -0.4084   -3.0217 H       1  UNL1        0.0480
     40 H           2.0498    1.7948   -1.2009 H       1  UNL1        0.0479
     41 H           2.6645    1.4503   -2.7858 H       1  UNL1        0.0479
     42 H           3.5726    2.8496   -0.4760 H       1  UNL1        0.0637
     43 H           5.0014    3.8937    1.1632 H       1  UNL1        0.0647
     44 H           6.9149    0.2667    1.7978 H       1  UNL1        0.0647
     45 H           5.4784   -0.7642    0.1553 H       1  UNL1        0.0637
     46 H           4.7822   -1.3222   -1.4990 H       1  UNL1        0.0479
     47 H           3.6934   -1.0688   -2.8004 H       1  UNL1        0.0479
     48 H           2.7037   -2.8154   -1.4731 H       1  UNL1        0.0480
     49 H           3.0406   -1.9891    0.0090 H       1  UNL1        0.0480
@<TRIPOS>BOND
     1     1     2    2
     2     2     3    1
     3     2    16   am
     4     3     4    1
     5     4     5    1
     6     5     6   ar
     7     5    15   ar
     8     6     7   ar
     9     7     8   ar
    10     7    12   ar
    11     8     9   ar
    12     9    10   ar
    13    10    11   ar
    14    11    12   ar
    15    12    13   ar
    16    13    14    2
    17    13    15   ar
    18    16    17    1
    19    16    28    1
    20    17    18    1
    21    18    19    1
    22    19    20    1
    23    19    27    1
    24    20    21   ar
    25    20    26   ar
    26    21    22   ar
    27    22    23   ar
    28    23    24    1
    29    23    25   ar
    30    25    26   ar
    31    27    28    1
    32     3    29    1
    33     3    30    1
    34     4    31    1
    35     4    32    1
    36     8    33    1
    37     9    34    1
    38    10    35    1
    39    11    36    1
    40    15    37    1
    41    17    38    1
    42    17    39    1
    43    18    40    1
    44    18    41    1
    45    21    42    1
    46    22    43    1
    47    25    44    1
    48    26    45    1
    49    27    46    1
    50    27    47    1
    51    28    48    1
    52    28    49    1
@<TRIPOS>MOLECULE
../data/bude_mols_rdkit_confs2/molecule_19.pdb
 49 52 0 0 0
SMALL
GASTEIGER

@<TRIPOS>ATOM
      1  O1        -0.4610   -2.7540   -0.7900 O.2     1  UNL1       -0.2756
      2  C1        -0.0790   -1.6910   -0.2090 C.2     1  UNL1        0.2161
      3  C2        -1.0980   -0.6590    0.0710 C.3     1  UNL1        0.0309
      4  C3        -2.4250   -1.1560   -0.4460 C.3     1  UNL1        0.0138
      5  C4        -3.5160   -0.1780   -0.2070 C.ar    1  UNL1        0.1108
      6  N1        -4.7480   -0.5110   -0.6260 N.ar    1  UNL1       -0.2337
      7  C5        -5.8000    0.3330   -0.4430 C.ar    1  UNL1        0.0781
      8  C6        -7.0610   -0.0540   -0.8930 C.ar    1  UNL1       -0.0355
      9  C7        -8.1080    0.8000   -0.7040 C.ar    1  UNL1       -0.0597
     10  C8        -7.9340    2.0130   -0.0880 C.ar    1  UNL1       -0.0609
     11  C9        -6.6940    2.4120    0.3640 C.ar    1  UNL1       -0.0474
     12  C10       -5.6380    1.5530    0.1750 C.ar    1  UNL1        0.0647
     13  C11       -4.3530    1.8660    0.5950 C.ar    1  UNL1        0.2592
     14  O2        -4.1630    2.9760    1.1670 O.2     1  UNL1       -0.2672
     15  N2        -3.3480    0.9980    0.3910 N.ar    1  UNL1       -0.3103
     16  N3         1.2520   -1.4640    0.1710 N.am    1  UNL1       -0.2985
     17  C12        1.6120   -0.2400    0.8230 C.3     1  UNL1        0.0304
     18  C13        2.5130    0.4860   -0.1890 C.3     1  UNL1        0.0280
     19  N4         3.6360   -0.3980   -0.4150 N.pl3   1  UNL1       -0.3269
     20  C14        4.9760   -0.0080   -0.1790 C.ar    1  UNL1        0.0299
     21  C15        6.0500   -0.6370   -0.7590 C.ar    1  UNL1       -0.0379
     22  C16        7.3700   -0.2790   -0.5270 C.ar    1  UNL1       -0.0247
     23  C17        7.6250    0.7640    0.3320 C.ar    1  UNL1        0.1235
     24  F1         8.8970    1.1800    0.6140 F       1  UNL1       -0.2055
     25  C18        6.5500    1.4040    0.9210 C.ar    1  UNL1       -0.0247
     26  C19        5.2450    1.0440    0.6870 C.ar    1  UNL1       -0.0379
     27  C20        3.3700   -1.7320   -0.8870 C.3     1  UNL1        0.0280
     28  C21        2.2710   -2.4350   -0.0790 C.3     1  UNL1        0.0304
     29 H          -0.8353    0.2531   -0.4229 H       1  UNL1        0.0362
     30 H          -1.1569   -0.4730    1.1231 H       1  UNL1        0.0362
     31 H          -2.6677   -2.0725    0.0500 H       1  UNL1        0.0348
     32 H          -2.3354   -1.2999   -1.5025 H       1  UNL1        0.0348
     33 H          -7.1994   -0.9648   -1.3581 H       1  UNL1        0.0639
     34 H          -9.0485    0.5282   -1.0306 H       1  UNL1        0.0618
     35 H          -8.7453    2.6380    0.0394 H       1  UNL1        0.0618
     36 H          -6.5634    3.3244    0.8283 H       1  UNL1        0.0626
     37 H          -2.4456    1.2438    0.6984 H       1  UNL1        0.1700
     38 H           2.1446   -0.4372    1.7299 H       1  UNL1        0.0480
     39 H           0.7566    0.3418    1.0962 H       1  UNL1        0.0480
     40 H           2.8477    1.4200    0.2118 H       1  UNL1        0.0479
     41 H           1.9918    0.7041   -1.0977 H       1  UNL1        0.0479
     42 H           5.8646   -1.4207   -1.4043 H       1  UNL1        0.0637
     43 H           8.1428   -0.7838   -0.9885 H       1  UNL1        0.0647
     44 H           6.7365    2.1879    1.5658 H       1  UNL1        0.0647
     45 H           4.4733    1.5495    1.1495 H       1  UNL1        0.0637
     46 H           4.2695   -2.3069   -0.8148 H       1  UNL1        0.0479
     47 H           3.0305   -1.6563   -1.8989 H       1  UNL1        0.0479
     48 H           1.8695   -3.2536   -0.6390 H       1  UNL1        0.0480
     49 H           2.6607   -2.8251    0.8380 H       1  UNL1        0.0480
@<TRIPOS>BOND
     1     1     2    2
     2     2     3    1
     3     2    16   am
     4     3     4    1
     5     4     5    1
     6     5     6   ar
     7     5    15   ar
     8     6     7   ar
     9     7     8   ar
    10     7    12   ar
    11     8     9   ar
    12     9    10   ar
    13    10    11   ar
    14    11    12   ar
    15    12    13   ar
    16    13    14    2
    17    13    15   ar
    18    16    17    1
    19    16    28    1
    20    17    18    1
    21    18    19    1
    22    19    20    1
    23    19    27    1
    24    20    21   ar
    25    20    26   ar
    26    21    22   ar
    27    22    23   ar
    28    23    24    1
    29    23    25   ar
    30    25    26   ar
    31    27    28    1
    32     3    29    1
    33     3    30    1
    34     4    31    1
    35     4    32    1
    36     8    33    1
    37     9    34    1
    38    10    35    1
    39    11    36    1
    40    15    37    1
    41    17    38    1
    42    17    39    1
    43    18    40    1
    44    18    41    1
    45    21    42    1
    46    22    43    1
    47    25    44    1
    48    26    45    1
    49    27    46    1
    50    27    47    1
    51    28    48    1
    52    28    49    1
@<TRIPOS>MOLECULE
../data/bude_mols_rdkit_confs2/molecule_19.pdb
 49 52 0 0 0
SMALL
GASTEIGER

@<TRIPOS>ATOM
      1  O1         0.1320    2.7630   -0.5770 O.2     1  UNL1       -0.2756
      2  C1         0.1870    1.5060   -0.7760 C.2     1  UNL1        0.2161
      3  C2        -1.0420    0.7100   -0.5300 C.3     1  UNL1        0.0309
      4  C3        -2.1460    1.6270   -0.1230 C.3     1  UNL1        0.0138
      5  C4        -3.4190    0.9190    0.1430 C.ar    1  UNL1        0.1108
      6  N1        -4.4790    1.6510    0.5200 N.ar    1  UNL1       -0.2337
      7  C5        -5.6670    1.1070    0.7820 C.ar    1  UNL1        0.0781
      8  C6        -6.7690    1.8320    1.1690 C.ar    1  UNL1       -0.0355
      9  C7        -7.9600    1.2110    1.4210 C.ar    1  UNL1       -0.0597
     10  C8        -8.0810   -0.1730    1.2910 C.ar    1  UNL1       -0.0609
     11  C9        -6.9830   -0.8790    0.9070 C.ar    1  UNL1       -0.0474
     12  C10       -5.7730   -0.2580    0.6500 C.ar    1  UNL1        0.0647
     13  C11       -4.6910   -1.0150    0.2630 C.ar    1  UNL1        0.2592
     14  O2        -4.7670   -2.2600    0.1370 O.2     1  UNL1       -0.2672
     15  N2        -3.5150   -0.4110    0.0120 N.ar    1  UNL1       -0.3103
     16  N3         1.3850    0.8870   -1.2160 N.am    1  UNL1       -0.2985
     17  C12        2.5540    1.6900   -1.4340 C.3     1  UNL1        0.0304
     18  C13        3.8200    1.0450   -1.0090 C.3     1  UNL1        0.0280
     19  N4         3.7260   -0.3140   -0.5570 N.pl3   1  UNL1       -0.3269
     20  C14        4.9010   -0.9010    0.0180 C.ar    1  UNL1        0.0299
     21  C15        4.8730   -2.1880    0.5510 C.ar    1  UNL1       -0.0379
     22  C16        5.9990   -2.7610    1.1000 C.ar    1  UNL1       -0.0247
     23  C17        7.1780   -2.0350    1.1180 C.ar    1  UNL1        0.1235
     24  F1         8.3200   -2.5430    1.6440 F       1  UNL1       -0.2055
     25  C18        7.2300   -0.7700    0.6010 C.ar    1  UNL1       -0.0247
     26  C19        6.0990   -0.2040    0.0540 C.ar    1  UNL1       -0.0379
     27  C20        2.5520   -1.1540   -0.6300 C.3     1  UNL1        0.0280
     28  C21        1.4510   -0.5290   -1.4520 C.3     1  UNL1        0.0304
     29 H          -0.8592    0.0012    0.2504 H       1  UNL1        0.0362
     30 H          -1.3179    0.1888   -1.4228 H       1  UNL1        0.0362
     31 H          -2.3077    2.3354   -0.9085 H       1  UNL1        0.0348
     32 H          -1.8477    2.1016    0.7884 H       1  UNL1        0.0348
     33 H          -6.6961    2.8564    1.2703 H       1  UNL1        0.0639
     34 H          -8.7774    1.7708    1.7101 H       1  UNL1        0.0618
     35 H          -8.9776   -0.6476    1.4807 H       1  UNL1        0.0618
     36 H          -7.0542   -1.9035    0.8048 H       1  UNL1        0.0626
     37 H          -2.7330   -0.9410   -0.2651 H       1  UNL1        0.1700
     38 H           2.4416    2.6025   -0.8866 H       1  UNL1        0.0480
     39 H           2.6274    1.8475   -2.4898 H       1  UNL1        0.0480
     40 H           4.2283    1.6262   -0.2088 H       1  UNL1        0.0479
     41 H           4.4288    1.0096   -1.8882 H       1  UNL1        0.0479
     42 H           3.9906   -2.7230    0.5342 H       1  UNL1        0.0637
     43 H           5.9645   -3.7153    1.4913 H       1  UNL1        0.0647
     44 H           8.1152   -0.2399    0.6205 H       1  UNL1        0.0647
     45 H           6.1443    0.7512   -0.3340 H       1  UNL1        0.0637
     46 H           2.1875   -1.3230    0.3617 H       1  UNL1        0.0479
     47 H           2.8343   -2.0709   -1.1039 H       1  UNL1        0.0479
     48 H           1.6444   -0.7039   -2.4897 H       1  UNL1        0.0480
     49 H           0.5176   -0.9695   -1.1700 H       1  UNL1        0.0480
@<TRIPOS>BOND
     1     1     2    2
     2     2     3    1
     3     2    16   am
     4     3     4    1
     5     4     5    1
     6     5     6   ar
     7     5    15   ar
     8     6     7   ar
     9     7     8   ar
    10     7    12   ar
    11     8     9   ar
    12     9    10   ar
    13    10    11   ar
    14    11    12   ar
    15    12    13   ar
    16    13    14    2
    17    13    15   ar
    18    16    17    1
    19    16    28    1
    20    17    18    1
    21    18    19    1
    22    19    20    1
    23    19    27    1
    24    20    21   ar
    25    20    26   ar
    26    21    22   ar
    27    22    23   ar
    28    23    24    1
    29    23    25   ar
    30    25    26   ar
    31    27    28    1
    32     3    29    1
    33     3    30    1
    34     4    31    1
    35     4    32    1
    36     8    33    1
    37     9    34    1
    38    10    35    1
    39    11    36    1
    40    15    37    1
    41    17    38    1
    42    17    39    1
    43    18    40    1
    44    18    41    1
    45    21    42    1
    46    22    43    1
    47    25    44    1
    48    26    45    1
    49    27    46    1
    50    27    47    1
    51    28    48    1
    52    28    49    1
@<TRIPOS>MOLECULE
../data/bude_mols_rdkit_confs2/molecule_19.pdb
 49 52 0 0 0
SMALL
GASTEIGER

@<TRIPOS>ATOM
      1  O1         0.1590   -2.0560   -1.7780 O.2     1  UNL1       -0.2756
      2  C1         0.0070   -1.0900   -0.9950 C.2     1  UNL1        0.2161
      3  C2         1.2130   -0.4650   -0.3960 C.3     1  UNL1        0.0309
      4  C3         2.4600   -1.1300   -0.8950 C.3     1  UNL1        0.0138
      5  C4         3.6600   -0.5090   -0.3020 C.ar    1  UNL1        0.1108
      6  N1         4.9070   -0.9130   -0.5850 N.ar    1  UNL1       -0.2337
      7  C5         5.9930   -0.3500   -0.0460 C.ar    1  UNL1        0.0781
      8  C6         7.2760   -0.7540   -0.3270 C.ar    1  UNL1       -0.0355
      9  C7         8.3820   -0.1730    0.2260 C.ar    1  UNL1       -0.0597
     10  C8         8.2350    0.8740    1.1180 C.ar    1  UNL1       -0.0609
     11  C9         6.9360    1.2980    1.4150 C.ar    1  UNL1       -0.0474
     12  C10        5.8290    0.7090    0.8530 C.ar    1  UNL1        0.0647
     13  C11        4.5680    1.1210    1.1430 C.ar    1  UNL1        0.2592
     14  O2         4.3900    2.0700    1.9490 O.2     1  UNL1       -0.2672
     15  N2         3.5060    0.5040    0.5600 N.ar    1  UNL1       -0.3103
     16  N3        -1.3020   -0.6350   -0.7150 N.am    1  UNL1       -0.2985
     17  C12       -2.4270   -1.2900   -1.3330 C.3     1  UNL1        0.0304
     18  C13       -3.4630   -0.1890   -1.5370 C.3     1  UNL1        0.0280
     19  N4        -3.8910    0.2610   -0.2370 N.pl3   1  UNL1       -0.3269
     20  C14       -5.2300    0.2170    0.2270 C.ar    1  UNL1        0.0299
     21  C15       -5.5640    0.7760    1.4680 C.ar    1  UNL1       -0.0379
     22  C16       -6.8490    0.7520    1.9620 C.ar    1  UNL1       -0.0247
     23  C17       -7.8770    0.1700    1.2510 C.ar    1  UNL1        0.1235
     24  F1        -9.1510    0.1490    1.7480 F       1  UNL1       -0.2055
     25  C18       -7.5670   -0.3840    0.0300 C.ar    1  UNL1       -0.0247
     26  C19       -6.2610   -0.3610   -0.4740 C.ar    1  UNL1       -0.0379
     27  C20       -2.8390    0.7830    0.6170 C.3     1  UNL1        0.0280
     28  C21       -1.4560    0.4750    0.1840 C.3     1  UNL1        0.0304
     29 H           1.1660   -0.5612    0.6686 H       1  UNL1        0.0362
     30 H           1.2392    0.5675   -0.6756 H       1  UNL1        0.0362
     31 H           2.5059   -1.0349   -1.9598 H       1  UNL1        0.0348
     32 H           2.4339   -2.1619   -0.6133 H       1  UNL1        0.0348
     33 H           7.4108   -1.5347   -0.9883 H       1  UNL1        0.0639
     34 H           9.3241   -0.5142   -0.0210 H       1  UNL1        0.0618
     35 H           9.0559    1.3267    1.5495 H       1  UNL1        0.0618
     36 H           6.8045    2.0783    2.0775 H       1  UNL1        0.0626
     37 H           2.5965    0.8112    0.7782 H       1  UNL1        0.1700
     38 H          -2.8135   -2.0561   -0.6938 H       1  UNL1        0.0480
     39 H          -2.1591   -1.7648   -2.2537 H       1  UNL1        0.0480
     40 H          -4.2995   -0.5732   -2.0826 H       1  UNL1        0.0479
     41 H          -3.0410    0.6223   -2.0925 H       1  UNL1        0.0479
     42 H          -4.8218    1.2206    2.0306 H       1  UNL1        0.0637
     43 H          -7.0463    1.1774    2.8813 H       1  UNL1        0.0647
     44 H          -8.3145   -0.8267   -0.5270 H       1  UNL1        0.0647
     45 H          -6.0681   -0.7881   -1.3934 H       1  UNL1        0.0637
     46 H          -2.9765    0.3752    1.5966 H       1  UNL1        0.0479
     47 H          -2.9294    1.8484    0.5775 H       1  UNL1        0.0479
     48 H          -1.0654    1.3446   -0.3020 H       1  UNL1        0.0480
     49 H          -0.9342    0.1945    1.0751 H       1  UNL1        0.0480
@<TRIPOS>BOND
     1     1     2    2
     2     2     3    1
     3     2    16   am
     4     3     4    1
     5     4     5    1
     6     5     6   ar
     7     5    15   ar
     8     6     7   ar
     9     7     8   ar
    10     7    12   ar
    11     8     9   ar
    12     9    10   ar
    13    10    11   ar
    14    11    12   ar
    15    12    13   ar
    16    13    14    2
    17    13    15   ar
    18    16    17    1
    19    16    28    1
    20    17    18    1
    21    18    19    1
    22    19    20    1
    23    19    27    1
    24    20    21   ar
    25    20    26   ar
    26    21    22   ar
    27    22    23   ar
    28    23    24    1
    29    23    25   ar
    30    25    26   ar
    31    27    28    1
    32     3    29    1
    33     3    30    1
    34     4    31    1
    35     4    32    1
    36     8    33    1
    37     9    34    1
    38    10    35    1
    39    11    36    1
    40    15    37    1
    41    17    38    1
    42    17    39    1
    43    18    40    1
    44    18    41    1
    45    21    42    1
    46    22    43    1
    47    25    44    1
    48    26    45    1
    49    27    46    1
    50    27    47    1
    51    28    48    1
    52    28    49    1
@<TRIPOS>MOLECULE
../data/bude_mols_rdkit_confs2/molecule_19.pdb
 49 52 0 0 0
SMALL
GASTEIGER

@<TRIPOS>ATOM
      1  O1        -0.8610   -1.9760    0.3620 O.2     1  UNL1       -0.2756
      2  C1        -0.4620   -0.8740    0.7880 C.2     1  UNL1        0.2161
      3  C2        -1.2440   -0.1530    1.7970 C.3     1  UNL1        0.0309
      4  C3        -2.5930   -0.7280    2.0400 C.3     1  UNL1        0.0138
      5  C4        -3.5150   -0.7420    0.8810 C.ar    1  UNL1        0.1108
      6  N1        -4.2120    0.3980    0.5640 N.ar    1  UNL1       -0.2337
      7  C5        -5.0940    0.4670   -0.4380 C.ar    1  UNL1        0.0781
      8  C6        -5.7860    1.6360   -0.7370 C.ar    1  UNL1       -0.0355
      9  C7        -6.6920    1.6890   -1.7760 C.ar    1  UNL1       -0.0597
     10  C8        -6.9560    0.5890   -2.5680 C.ar    1  UNL1       -0.0609
     11  C9        -6.2660   -0.5660   -2.2650 C.ar    1  UNL1       -0.0474
     12  C10       -5.3550   -0.6320   -1.2260 C.ar    1  UNL1        0.0647
     13  C11       -4.6650   -1.7830   -0.9230 C.ar    1  UNL1        0.2592
     14  O2        -4.8770   -2.8070   -1.6200 O.2     1  UNL1       -0.2672
     15  N2        -3.7720   -1.8090    0.1130 N.ar    1  UNL1       -0.3103
     16  N3         0.7610   -0.3690    0.2570 N.am    1  UNL1       -0.2985
     17  C12        1.2490    0.8990    0.7300 C.3     1  UNL1        0.0304
     18  C13        2.6830    0.6550    1.2270 C.3     1  UNL1        0.0280
     19  N4         3.4380    0.1910    0.0930 N.pl3   1  UNL1       -0.3269
     20  C14        4.8370    0.3870    0.0690 C.ar    1  UNL1        0.0299
     21  C15        5.4890    0.8690    1.1790 C.ar    1  UNL1       -0.0379
     22  C16        6.8710    1.0880    1.2160 C.ar    1  UNL1       -0.0247
     23  C17        7.6010    0.8090    0.0920 C.ar    1  UNL1        0.1235
     24  F1         8.9470    1.0110    0.0930 F       1  UNL1       -0.2055
     25  C18        6.9620    0.3270   -1.0240 C.ar    1  UNL1       -0.0247
     26  C19        5.6010    0.1130   -1.0530 C.ar    1  UNL1       -0.0379
     27  C20        2.8340   -0.4830   -1.0430 C.3     1  UNL1        0.0280
     28  C21        1.4920   -1.0960   -0.7210 C.3     1  UNL1        0.0304
     29 H          -1.3633    0.8590    1.4705 H       1  UNL1        0.0362
     30 H          -0.7049   -0.2275    2.7183 H       1  UNL1        0.0362
     31 H          -3.0556   -0.1582    2.8186 H       1  UNL1        0.0348
     32 H          -2.4266   -1.7558    2.2867 H       1  UNL1        0.0348
     33 H          -5.6181    2.4815   -0.1696 H       1  UNL1        0.0639
     34 H          -7.1859    2.5749   -1.9666 H       1  UNL1        0.0618
     35 H          -7.6336    0.6291   -3.3453 H       1  UNL1        0.0618
     36 H          -6.4352   -1.4107   -2.8333 H       1  UNL1        0.0626
     37 H          -3.2967   -2.6500    0.3027 H       1  UNL1        0.1700
     38 H           0.6357    1.2560    1.5308 H       1  UNL1        0.0480
     39 H           1.2276    1.6362   -0.0453 H       1  UNL1        0.0480
     40 H           2.6850   -0.0852    1.9997 H       1  UNL1        0.0479
     41 H           3.1077    1.5489    1.6337 H       1  UNL1        0.0479
     42 H           4.9343    1.0790    2.0235 H       1  UNL1        0.0637
     43 H           7.3274    1.4501    2.0678 H       1  UNL1        0.0647
     44 H           7.5187    0.1185   -1.8676 H       1  UNL1        0.0647
     45 H           5.1524   -0.2504   -1.9084 H       1  UNL1        0.0637
     46 H           3.4940   -1.2595   -1.3690 H       1  UNL1        0.0479
     47 H           2.6754    0.2524   -1.8038 H       1  UNL1        0.0479
     48 H           0.9120   -1.1342   -1.6193 H       1  UNL1        0.0480
     49 H           1.6773   -2.0699   -0.3184 H       1  UNL1        0.0480
@<TRIPOS>BOND
     1     1     2    2
     2     2     3    1
     3     2    16   am
     4     3     4    1
     5     4     5    1
     6     5     6   ar
     7     5    15   ar
     8     6     7   ar
     9     7     8   ar
    10     7    12   ar
    11     8     9   ar
    12     9    10   ar
    13    10    11   ar
    14    11    12   ar
    15    12    13   ar
    16    13    14    2
    17    13    15   ar
    18    16    17    1
    19    16    28    1
    20    17    18    1
    21    18    19    1
    22    19    20    1
    23    19    27    1
    24    20    21   ar
    25    20    26   ar
    26    21    22   ar
    27    22    23   ar
    28    23    24    1
    29    23    25   ar
    30    25    26   ar
    31    27    28    1
    32     3    29    1
    33     3    30    1
    34     4    31    1
    35     4    32    1
    36     8    33    1
    37     9    34    1
    38    10    35    1
    39    11    36    1
    40    15    37    1
    41    17    38    1
    42    17    39    1
    43    18    40    1
    44    18    41    1
    45    21    42    1
    46    22    43    1
    47    25    44    1
    48    26    45    1
    49    27    46    1
    50    27    47    1
    51    28    48    1
    52    28    49    1
@<TRIPOS>MOLECULE
../data/bude_mols_rdkit_confs2/molecule_19.pdb
 49 52 0 0 0
SMALL
GASTEIGER

@<TRIPOS>ATOM
      1  O1         0.0340    2.8070    1.0650 O.2     1  UNL1       -0.2756
      2  C1         0.0750    1.5600    0.8600 C.2     1  UNL1        0.2161
      3  C2        -1.1310    0.8840    0.3460 C.3     1  UNL1        0.0309
      4  C3        -2.2650    1.8860    0.1540 C.3     1  UNL1        0.0138
      5  C4        -3.4790    1.1930   -0.3640 C.ar    1  UNL1        0.1108
      6  N1        -4.4050    0.6740    0.4620 N.ar    1  UNL1       -0.2337
      7  C5        -5.5120    0.0430    0.0120 C.ar    1  UNL1        0.0781
      8  C6        -6.4660   -0.4910    0.8540 C.ar    1  UNL1       -0.0355
      9  C7        -7.5950   -1.1350    0.3810 C.ar    1  UNL1       -0.0597
     10  C8        -7.7950   -1.2590   -0.9870 C.ar    1  UNL1       -0.0609
     11  C9        -6.8490   -0.7290   -1.8530 C.ar    1  UNL1       -0.0474
     12  C10       -5.7350   -0.0930   -1.3440 C.ar    1  UNL1        0.0647
     13  C11       -4.7820    0.4400   -2.1920 C.ar    1  UNL1        0.2592
     14  O2        -4.9890    0.3130   -3.4250 O.2     1  UNL1       -0.2672
     15  N2        -3.6930    1.0610   -1.6900 N.ar    1  UNL1       -0.3103
     16  N3         1.2550    0.8420    1.1190 N.am    1  UNL1       -0.2985
     17  C12        2.4260    1.5050    1.6180 C.3     1  UNL1        0.0304
     18  C13        3.6370    0.5970    1.6400 C.3     1  UNL1        0.0280
     19  N4         3.6950   -0.2790    0.4780 N.pl3   1  UNL1       -0.3269
     20  C14        4.9290   -0.6550   -0.1170 C.ar    1  UNL1        0.0299
     21  C15        6.1600   -0.3100    0.4130 C.ar    1  UNL1       -0.0379
     22  C16        7.3620   -0.6750   -0.1730 C.ar    1  UNL1       -0.0247
     23  C17        7.3500   -1.4110   -1.3280 C.ar    1  UNL1        0.1235
     24  F1         8.5010   -1.7820   -1.9220 F       1  UNL1       -0.2055
     25  C18        6.1490   -1.7810   -1.8970 C.ar    1  UNL1       -0.0247
     26  C19        4.9570   -1.3930   -1.2760 C.ar    1  UNL1       -0.0379
     27  C20        2.4740   -0.8030   -0.1090 C.3     1  UNL1        0.0280
     28  C21        1.3480   -0.5840    0.8990 C.3     1  UNL1        0.0304
     29 H          -1.4386    0.1338    1.0442 H       1  UNL1        0.0362
     30 H          -0.9008    0.4371   -0.5986 H       1  UNL1        0.0362
     31 H          -1.9600    2.6359   -0.5457 H       1  UNL1        0.0348
     32 H          -2.4953    2.3388    1.0957 H       1  UNL1        0.0348
     33 H          -6.3322   -0.4068    1.8738 H       1  UNL1        0.0639
     34 H          -8.2861   -1.5219    1.0427 H       1  UNL1        0.0618
     35 H          -8.6328   -1.7371   -1.3537 H       1  UNL1        0.0618
     36 H          -6.9780   -0.8101   -2.8737 H       1  UNL1        0.0626
     37 H          -3.0294    1.4319   -2.3156 H       1  UNL1        0.1700
     38 H           2.2315    1.8428    2.6145 H       1  UNL1        0.0480
     39 H           2.6427    2.3226    0.9626 H       1  UNL1        0.0480
     40 H           3.5986   -0.0058    2.5232 H       1  UNL1        0.0479
     41 H           4.5095    1.2162    1.6257 H       1  UNL1        0.0479
     42 H           6.1841    0.2438    1.2835 H       1  UNL1        0.0637
     43 H           8.2574   -0.3948    0.2569 H       1  UNL1        0.0647
     44 H           6.1302   -2.3354   -2.7672 H       1  UNL1        0.0647
     45 H           4.0615   -1.6726   -1.7061 H       1  UNL1        0.0637
     46 H           2.5851   -1.8479   -0.3110 H       1  UNL1        0.0479
     47 H           2.2559   -0.3056   -1.0309 H       1  UNL1        0.0479
     48 H           0.4250   -0.9571    0.5069 H       1  UNL1        0.0480
     49 H           1.5465   -1.1013    1.8144 H       1  UNL1        0.0480
@<TRIPOS>BOND
     1     1     2    2
     2     2     3    1
     3     2    16   am
     4     3     4    1
     5     4     5    1
     6     5     6   ar
     7     5    15   ar
     8     6     7   ar
     9     7     8   ar
    10     7    12   ar
    11     8     9   ar
    12     9    10   ar
    13    10    11   ar
    14    11    12   ar
    15    12    13   ar
    16    13    14    2
    17    13    15   ar
    18    16    17    1
    19    16    28    1
    20    17    18    1
    21    18    19    1
    22    19    20    1
    23    19    27    1
    24    20    21   ar
    25    20    26   ar
    26    21    22   ar
    27    22    23   ar
    28    23    24    1
    29    23    25   ar
    30    25    26   ar
    31    27    28    1
    32     3    29    1
    33     3    30    1
    34     4    31    1
    35     4    32    1
    36     8    33    1
    37     9    34    1
    38    10    35    1
    39    11    36    1
    40    15    37    1
    41    17    38    1
    42    17    39    1
    43    18    40    1
    44    18    41    1
    45    21    42    1
    46    22    43    1
    47    25    44    1
    48    26    45    1
    49    27    46    1
    50    27    47    1
    51    28    48    1
    52    28    49    1
@<TRIPOS>MOLECULE
../data/bude_mols_rdkit_confs2/molecule_19.pdb
 49 52 0 0 0
SMALL
GASTEIGER

@<TRIPOS>ATOM
      1  O1         0.1940    1.9350   -2.5570 O.2     1  UNL1       -0.2756
      2  C1         0.0830    1.1870   -1.5360 C.2     1  UNL1        0.2161
      3  C2         1.2890    0.7790   -0.7880 C.3     1  UNL1        0.0309
      4  C3         2.5520    1.3750   -1.4200 C.3     1  UNL1        0.0138
      5  C4         3.6870    0.9030   -0.5950 C.ar    1  UNL1        0.1108
      6  N1         4.3460   -0.2450   -0.8530 N.ar    1  UNL1       -0.2337
      7  C5         5.3750   -0.6590   -0.0930 C.ar    1  UNL1        0.0781
      8  C6         6.0360   -1.8310   -0.3690 C.ar    1  UNL1       -0.0355
      9  C7         7.0760   -2.2560    0.3940 C.ar    1  UNL1       -0.0597
     10  C8         7.4690   -1.4820    1.4720 C.ar    1  UNL1       -0.0609
     11  C9         6.8400   -0.2990    1.7930 C.ar    1  UNL1       -0.0474
     12  C10        5.7930    0.0870    0.9880 C.ar    1  UNL1        0.0647
     13  C11        5.1170    1.2600    1.2500 C.ar    1  UNL1        0.2592
     14  O2         5.4550    1.9830    2.2250 O.2     1  UNL1       -0.2672
     15  N2         4.0860    1.6330    0.4520 N.ar    1  UNL1       -0.3103
     16  N3        -1.1800    0.7270   -1.0860 N.am    1  UNL1       -0.2985
     17  C12       -1.3190   -0.1130    0.0590 C.3     1  UNL1        0.0304
     18  C13       -2.6510    0.1360    0.7580 C.3     1  UNL1        0.0280
     19  N4        -3.6950   -0.0550   -0.2000 N.pl3   1  UNL1       -0.3269
     20  C14       -5.0090   -0.3790    0.2570 C.ar    1  UNL1        0.0299
     21  C15       -5.2950   -0.2430    1.5890 C.ar    1  UNL1       -0.0379
     22  C16       -6.5440   -0.5510    2.0810 C.ar    1  UNL1       -0.0247
     23  C17       -7.5080   -1.0020    1.2050 C.ar    1  UNL1        0.1235
     24  F1        -8.7390   -1.3110    1.6640 F       1  UNL1       -0.2055
     25  C18       -7.2270   -1.1410   -0.1370 C.ar    1  UNL1       -0.0247
     26  C19       -5.9710   -0.8280   -0.6110 C.ar    1  UNL1       -0.0379
     27  C20       -3.4570    0.0810   -1.6040 C.3     1  UNL1        0.0280
     28  C21       -2.3600    1.1260   -1.8190 C.3     1  UNL1        0.0304
     29 H           1.3627   -0.2884   -0.7974 H       1  UNL1        0.0362
     30 H           1.2066    1.1389    0.2163 H       1  UNL1        0.0362
     31 H           2.5039    2.4439   -1.4084 H       1  UNL1        0.0348
     32 H           2.6584    1.0718   -2.4406 H       1  UNL1        0.0348
     33 H           5.7355   -2.4017   -1.1746 H       1  UNL1        0.0639
     34 H           7.5636   -3.1386    0.1743 H       1  UNL1        0.0618
     35 H           8.2589   -1.8014    2.0543 H       1  UNL1        0.0618
     36 H           7.1400    0.2709    2.5994 H       1  UNL1        0.0626
     37 H           3.6132    2.4733    0.6510 H       1  UNL1        0.1700
     38 H          -0.5213    0.0912    0.7422 H       1  UNL1        0.0480
     39 H          -1.2858   -1.1338   -0.2599 H       1  UNL1        0.0480
     40 H          -2.6821    1.1372    1.1342 H       1  UNL1        0.0479
     41 H          -2.7719   -0.5392    1.5792 H       1  UNL1        0.0479
     42 H          -4.5638    0.0953    2.2339 H       1  UNL1        0.0637
     43 H          -6.7541   -0.4462    3.0859 H       1  UNL1        0.0647
     44 H          -7.9552   -1.4787   -0.7856 H       1  UNL1        0.0647
     45 H          -5.7555   -0.9312   -1.6150 H       1  UNL1        0.0637
     46 H          -4.3553    0.3969   -2.0921 H       1  UNL1        0.0479
     47 H          -3.1495   -0.8585   -2.0134 H       1  UNL1        0.0479
     48 H          -2.1288    1.1941   -2.8615 H       1  UNL1        0.0480
     49 H          -2.6964    2.0802   -1.4709 H       1  UNL1        0.0480
@<TRIPOS>BOND
     1     1     2    2
     2     2     3    1
     3     2    16   am
     4     3     4    1
     5     4     5    1
     6     5     6   ar
     7     5    15   ar
     8     6     7   ar
     9     7     8   ar
    10     7    12   ar
    11     8     9   ar
    12     9    10   ar
    13    10    11   ar
    14    11    12   ar
    15    12    13   ar
    16    13    14    2
    17    13    15   ar
    18    16    17    1
    19    16    28    1
    20    17    18    1
    21    18    19    1
    22    19    20    1
    23    19    27    1
    24    20    21   ar
    25    20    26   ar
    26    21    22   ar
    27    22    23   ar
    28    23    24    1
    29    23    25   ar
    30    25    26   ar
    31    27    28    1
    32     3    29    1
    33     3    30    1
    34     4    31    1
    35     4    32    1
    36     8    33    1
    37     9    34    1
    38    10    35    1
    39    11    36    1
    40    15    37    1
    41    17    38    1
    42    17    39    1
    43    18    40    1
    44    18    41    1
    45    21    42    1
    46    22    43    1
    47    25    44    1
    48    26    45    1
    49    27    46    1
    50    27    47    1
    51    28    48    1
    52    28    49    1
@<TRIPOS>MOLECULE
../data/bude_mols_rdkit_confs2/molecule_19.pdb
 49 52 0 0 0
SMALL
GASTEIGER

@<TRIPOS>ATOM
      1  O1        -0.1030    1.3660   -2.1640 O.2     1  UNL1       -0.2756
      2  C1         0.0610    0.5460   -1.2410 C.2     1  UNL1        0.2161
      3  C2        -1.1150    0.0740   -0.4710 C.3     1  UNL1        0.0309
      4  C3        -2.3460    0.7020   -1.0220 C.3     1  UNL1        0.0138
      5  C4        -3.5840    0.3010   -0.3230 C.ar    1  UNL1        0.1108
      6  N1        -4.7350    0.8360   -0.7730 N.ar    1  UNL1       -0.2337
      7  C5        -5.9340    0.5890   -0.2690 C.ar    1  UNL1        0.0781
      8  C6        -7.0620    1.1790   -0.7900 C.ar    1  UNL1       -0.0355
      9  C7        -8.3250    0.9290   -0.2690 C.ar    1  UNL1       -0.0597
     10  C8        -8.4030    0.0590    0.7970 C.ar    1  UNL1       -0.0609
     11  C9        -7.2620   -0.5440    1.3310 C.ar    1  UNL1       -0.0474
     12  C10       -6.0230   -0.2800    0.7990 C.ar    1  UNL1        0.0647
     13  C11       -4.8520   -0.8350    1.2700 C.ar    1  UNL1        0.2592
     14  O2        -4.9390   -1.6230    2.2390 O.2     1  UNL1       -0.2672
     15  N2        -3.6480   -0.5340    0.6980 N.ar    1  UNL1       -0.3103
     16  N3         1.3640    0.0820   -0.9470 N.am    1  UNL1       -0.2985
     17  C12        1.5230   -0.8640    0.1190 C.3     1  UNL1        0.0304
     18  C13        2.9210   -1.0030    0.6490 C.3     1  UNL1        0.0280
     19  N4         3.9370   -0.5760   -0.3050 N.pl3   1  UNL1       -0.3269
     20  C14        5.2380   -0.2430    0.0990 C.ar    1  UNL1        0.0299
     21  C15        5.6690   -0.5120    1.4040 C.ar    1  UNL1       -0.0379
     22  C16        6.9270   -0.2040    1.8600 C.ar    1  UNL1       -0.0247
     23  C17        7.8130    0.3980    1.0020 C.ar    1  UNL1        0.1235
     24  F1         9.0650    0.7010    1.4620 F       1  UNL1       -0.2055
     25  C18        7.4180    0.6730   -0.2820 C.ar    1  UNL1       -0.0247
     26  C19        6.1330    0.3580   -0.7450 C.ar    1  UNL1       -0.0379
     27  C20        3.5340   -0.5250   -1.6800 C.3     1  UNL1        0.0280
     28  C21        2.4700    0.5870   -1.7410 C.3     1  UNL1        0.0304
     29 H          -1.0029    0.3484    0.5571 H       1  UNL1        0.0362
     30 H          -1.1902   -0.9906   -0.5471 H       1  UNL1        0.0362
     31 H          -2.4347    0.4241   -2.0515 H       1  UNL1        0.0348
     32 H          -2.2423    1.7588   -0.8906 H       1  UNL1        0.0348
     33 H          -6.9674    1.8247   -1.5894 H       1  UNL1        0.0639
     34 H          -9.1681    1.3752   -0.6629 H       1  UNL1        0.0618
     35 H          -9.3251   -0.1516    1.2099 H       1  UNL1        0.0618
     36 H          -7.3500   -1.1915    2.1297 H       1  UNL1        0.0626
     37 H          -2.8237   -0.9420    1.0491 H       1  UNL1        0.1700
     38 H           1.2083   -1.8219   -0.2392 H       1  UNL1        0.0480
     39 H           0.9330   -0.4960    0.9322 H       1  UNL1        0.0480
     40 H           3.0926   -2.0306    0.8927 H       1  UNL1        0.0479
     41 H           3.0021   -0.3698    1.5077 H       1  UNL1        0.0479
     42 H           5.0084   -0.9641    2.0553 H       1  UNL1        0.0637
     43 H           7.2014   -0.4214    2.8308 H       1  UNL1        0.0647
     44 H           8.0860    1.1249   -0.9260 H       1  UNL1        0.0647
     45 H           5.8631    0.5778   -1.7165 H       1  UNL1        0.0637
     46 H           3.1170   -1.4620   -1.9849 H       1  UNL1        0.0479
     47 H           4.3581   -0.3298   -2.3340 H       1  UNL1        0.0479
     48 H           2.8499    1.4962   -1.3239 H       1  UNL1        0.0480
     49 H           2.1777    0.8133   -2.7451 H       1  UNL1        0.0480
@<TRIPOS>BOND
     1     1     2    2
     2     2     3    1
     3     2    16   am
     4     3     4    1
     5     4     5    1
     6     5     6   ar
     7     5    15   ar
     8     6     7   ar
     9     7     8   ar
    10     7    12   ar
    11     8     9   ar
    12     9    10   ar
    13    10    11   ar
    14    11    12   ar
    15    12    13   ar
    16    13    14    2
    17    13    15   ar
    18    16    17    1
    19    16    28    1
    20    17    18    1
    21    18    19    1
    22    19    20    1
    23    19    27    1
    24    20    21   ar
    25    20    26   ar
    26    21    22   ar
    27    22    23   ar
    28    23    24    1
    29    23    25   ar
    30    25    26   ar
    31    27    28    1
    32     3    29    1
    33     3    30    1
    34     4    31    1
    35     4    32    1
    36     8    33    1
    37     9    34    1
    38    10    35    1
    39    11    36    1
    40    15    37    1
    41    17    38    1
    42    17    39    1
    43    18    40    1
    44    18    41    1
    45    21    42    1
    46    22    43    1
    47    25    44    1
    48    26    45    1
    49    27    46    1
    50    27    47    1
    51    28    48    1
    52    28    49    1
@<TRIPOS>MOLECULE
../data/bude_mols_rdkit_confs2/molecule_19.pdb
 49 52 0 0 0
SMALL
GASTEIGER

@<TRIPOS>ATOM
      1  O1         0.0840   -2.5670   -1.8370 O.2     1  UNL1       -0.2756
      2  C1         0.1190   -1.5660   -1.0420 C.2     1  UNL1        0.2161
      3  C2        -1.1930   -1.0230   -0.5940 C.3     1  UNL1        0.0309
      4  C3        -2.3440   -1.8030   -1.2150 C.3     1  UNL1        0.0138
      5  C4        -3.6280   -1.2470   -0.7570 C.ar    1  UNL1        0.1108
      6  N1        -4.2070   -0.2680   -1.4560 N.ar    1  UNL1       -0.2337
      7  C5        -5.3880    0.2900   -1.0970 C.ar    1  UNL1        0.0781
      8  C6        -5.9790    1.3030   -1.8290 C.ar    1  UNL1       -0.0355
      9  C7        -7.1920    1.8710   -1.4560 C.ar    1  UNL1       -0.0597
     10  C8        -7.7920    1.3800   -0.3140 C.ar    1  UNL1       -0.0609
     11  C9        -7.2080    0.3720    0.4170 C.ar    1  UNL1       -0.0474
     12  C10       -5.9940   -0.1950    0.0420 C.ar    1  UNL1        0.0647
     13  C11       -5.4100   -1.2060    0.7760 C.ar    1  UNL1        0.2592
     14  O2        -5.9490   -1.6550    1.8120 O.2     1  UNL1       -0.2672
     15  N2        -4.2170   -1.7150    0.3460 N.ar    1  UNL1       -0.3103
     16  N3         1.3570   -1.0100   -0.6160 N.am    1  UNL1       -0.2985
     17  C12        2.5670   -1.5970   -1.1000 C.3     1  UNL1        0.0304
     18  C13        3.8140   -1.1970   -0.3950 C.3     1  UNL1        0.0280
     19  N4         3.7660    0.1290    0.1480 N.pl3   1  UNL1       -0.3269
     20  C14        5.0110    0.7460    0.4740 C.ar    1  UNL1        0.0299
     21  C15        6.2230    0.0670    0.3990 C.ar    1  UNL1       -0.0379
     22  C16        7.4280    0.7040    0.7200 C.ar    1  UNL1       -0.0247
     23  C17        7.4330    2.0170    1.1160 C.ar    1  UNL1        0.1235
     24  F1         8.5700    2.6890    1.4390 F       1  UNL1       -0.2055
     25  C18        6.2200    2.6730    1.1850 C.ar    1  UNL1       -0.0247
     26  C19        5.0320    2.0490    0.8690 C.ar    1  UNL1       -0.0379
     27  C20        2.5660    0.8750    0.3940 C.3     1  UNL1        0.0280
     28  C21        1.2990    0.1180    0.2820 C.3     1  UNL1        0.0304
     29 H          -1.2663    0.0032   -0.8879 H       1  UNL1        0.0362
     30 H          -1.2545   -1.1120    0.4705 H       1  UNL1        0.0362
     31 H          -2.2766   -2.8297   -0.9213 H       1  UNL1        0.0348
     32 H          -2.2869   -1.7283   -2.2809 H       1  UNL1        0.0348
     33 H          -5.5053    1.6482   -2.6784 H       1  UNL1        0.0639
     34 H          -7.6250    2.6270   -2.0091 H       1  UNL1        0.0618
     35 H          -8.6932    1.7756   -0.0037 H       1  UNL1        0.0618
     36 H          -7.6827    0.0271    1.2660 H       1  UNL1        0.0626
     37 H          -3.7855   -2.4374    0.8570 H       1  UNL1        0.1700
     38 H           2.6725   -1.3271   -2.1300 H       1  UNL1        0.0480
     39 H           2.4649   -2.6486   -0.9307 H       1  UNL1        0.0480
     40 H           4.6266   -1.2491   -1.0891 H       1  UNL1        0.0479
     41 H           3.9384   -1.8690    0.4283 H       1  UNL1        0.0479
     42 H           6.2341   -0.9213    0.1022 H       1  UNL1        0.0637
     43 H           8.3166    0.1829    0.6583 H       1  UNL1        0.0647
     44 H           6.2021    3.6611    1.4823 H       1  UNL1        0.0647
     45 H           4.1471    2.5762    0.9326 H       1  UNL1        0.0637
     46 H           2.5303    1.6798   -0.3102 H       1  UNL1        0.0479
     47 H           2.6254    1.1901    1.4148 H       1  UNL1        0.0479
     48 H           1.0368   -0.2418    1.2550 H       1  UNL1        0.0480
     49 H           0.5740    0.7934   -0.1218 H       1  UNL1        0.0480
@<TRIPOS>BOND
     1     1     2    2
     2     2     3    1
     3     2    16   am
     4     3     4    1
     5     4     5    1
     6     5     6   ar
     7     5    15   ar
     8     6     7   ar
     9     7     8   ar
    10     7    12   ar
    11     8     9   ar
    12     9    10   ar
    13    10    11   ar
    14    11    12   ar
    15    12    13   ar
    16    13    14    2
    17    13    15   ar
    18    16    17    1
    19    16    28    1
    20    17    18    1
    21    18    19    1
    22    19    20    1
    23    19    27    1
    24    20    21   ar
    25    20    26   ar
    26    21    22   ar
    27    22    23   ar
    28    23    24    1
    29    23    25   ar
    30    25    26   ar
    31    27    28    1
    32     3    29    1
    33     3    30    1
    34     4    31    1
    35     4    32    1
    36     8    33    1
    37     9    34    1
    38    10    35    1
    39    11    36    1
    40    15    37    1
    41    17    38    1
    42    17    39    1
    43    18    40    1
    44    18    41    1
    45    21    42    1
    46    22    43    1
    47    25    44    1
    48    26    45    1
    49    27    46    1
    50    27    47    1
    51    28    48    1
    52    28    49    1
@<TRIPOS>MOLECULE
../data/bude_mols_rdkit_confs2/molecule_19.pdb
 49 52 0 0 0
SMALL
GASTEIGER

@<TRIPOS>ATOM
      1  O1         0.1690   -3.1430   -1.4010 O.2     1  UNL1       -0.2756
      2  C1         0.1790   -2.0710   -0.7520 C.2     1  UNL1        0.2161
      3  C2        -1.0850   -1.3750   -0.5100 C.3     1  UNL1        0.0309
      4  C3        -2.2660   -2.1260   -1.1130 C.3     1  UNL1        0.0138
      5  C4        -3.5140   -1.3540   -0.8210 C.ar    1  UNL1        0.1108
      6  N1        -3.4980   -0.1870   -0.1350 N.ar    1  UNL1       -0.2337
      7  C5        -4.6010    0.5220    0.1420 C.ar    1  UNL1        0.0781
      8  C6        -4.5380    1.7160    0.8510 C.ar    1  UNL1       -0.0355
      9  C7        -5.6740    2.4420    1.1340 C.ar    1  UNL1       -0.0597
     10  C8        -6.8920    1.9530    0.6940 C.ar    1  UNL1       -0.0609
     11  C9        -6.9690    0.7660   -0.0130 C.ar    1  UNL1       -0.0474
     12  C10       -5.8220    0.0500   -0.2890 C.ar    1  UNL1        0.0647
     13  C11       -5.8720   -1.1430   -0.9950 C.ar    1  UNL1        0.2592
     14  O2        -6.9770   -1.5560   -1.3750 O.2     1  UNL1       -0.2672
     15  N2        -4.7210   -1.7960   -1.2320 N.ar    1  UNL1       -0.3103
     16  N3         1.3920   -1.5500   -0.2670 N.am    1  UNL1       -0.2985
     17  C12        2.6150   -2.2740   -0.5290 C.3     1  UNL1        0.0304
     18  C13        3.8580   -1.4700   -0.4560 C.3     1  UNL1        0.0280
     19  N4         3.7230   -0.2050    0.2630 N.pl3   1  UNL1       -0.3269
     20  C14        4.5820    0.8690   -0.0340 C.ar    1  UNL1        0.0299
     21  C15        5.6900    0.6880   -0.8270 C.ar    1  UNL1       -0.0379
     22  C16        6.5510    1.7460   -1.1390 C.ar    1  UNL1       -0.0247
     23  C17        6.2830    3.0000   -0.6410 C.ar    1  UNL1        0.1235
     24  F1         7.1410    4.0240   -0.9600 F       1  UNL1       -0.2055
     25  C18        5.1810    3.1960    0.1510 C.ar    1  UNL1       -0.0247
     26  C19        4.3440    2.1270    0.4440 C.ar    1  UNL1       -0.0379
     27  C20        2.6800   -0.1790    1.2650 C.3     1  UNL1        0.0280
     28  C21        1.3670   -0.3060    0.4810 C.3     1  UNL1        0.0304
     29 H          -1.0336   -0.4002   -0.9482 H       1  UNL1        0.0362
     30 H          -1.2343   -1.3124    0.5477 H       1  UNL1        0.0362
     31 H          -2.3342   -3.1014   -0.6784 H       1  UNL1        0.0348
     32 H          -2.1357   -2.2290   -2.1700 H       1  UNL1        0.0348
     33 H          -3.6216    2.0657    1.1719 H       1  UNL1        0.0639
     34 H          -5.6184    3.3278    1.6606 H       1  UNL1        0.0618
     35 H          -7.7551    2.4814    0.8962 H       1  UNL1        0.0618
     36 H          -7.8851    0.4158   -0.3342 H       1  UNL1        0.0626
     37 H          -4.7608   -2.6428   -1.7327 H       1  UNL1        0.1700
     38 H           2.5482   -2.6898   -1.5126 H       1  UNL1        0.0480
     39 H           2.6937   -3.0093    0.2444 H       1  UNL1        0.0480
     40 H           4.1748   -1.2539   -1.4549 H       1  UNL1        0.0479
     41 H           4.5664   -2.0559    0.0916 H       1  UNL1        0.0479
     42 H           5.8920   -0.2521   -1.2018 H       1  UNL1        0.0637
     43 H           7.3777    1.5873   -1.7360 H       1  UNL1        0.0647
     44 H           4.9743    4.1342    0.5279 H       1  UNL1        0.0647
     45 H           3.5174    2.2875    1.0407 H       1  UNL1        0.0637
     46 H           2.7049    0.7421    1.8089 H       1  UNL1        0.0479
     47 H           2.7950   -0.9640    1.9830 H       1  UNL1        0.0479
     48 H           0.5405   -0.3107    1.1606 H       1  UNL1        0.0480
     49 H           1.2603    0.5212   -0.1893 H       1  UNL1        0.0480
@<TRIPOS>BOND
     1     1     2    2
     2     2     3    1
     3     2    16   am
     4     3     4    1
     5     4     5    1
     6     5     6   ar
     7     5    15   ar
     8     6     7   ar
     9     7     8   ar
    10     7    12   ar
    11     8     9   ar
    12     9    10   ar
    13    10    11   ar
    14    11    12   ar
    15    12    13   ar
    16    13    14    2
    17    13    15   ar
    18    16    17    1
    19    16    28    1
    20    17    18    1
    21    18    19    1
    22    19    20    1
    23    19    27    1
    24    20    21   ar
    25    20    26   ar
    26    21    22   ar
    27    22    23   ar
    28    23    24    1
    29    23    25   ar
    30    25    26   ar
    31    27    28    1
    32     3    29    1
    33     3    30    1
    34     4    31    1
    35     4    32    1
    36     8    33    1
    37     9    34    1
    38    10    35    1
    39    11    36    1
    40    15    37    1
    41    17    38    1
    42    17    39    1
    43    18    40    1
    44    18    41    1
    45    21    42    1
    46    22    43    1
    47    25    44    1
    48    26    45    1
    49    27    46    1
    50    27    47    1
    51    28    48    1
    52    28    49    1
@<TRIPOS>MOLECULE
../data/bude_mols_rdkit_confs2/molecule_19.pdb
 49 52 0 0 0
SMALL
GASTEIGER

@<TRIPOS>ATOM
      1  O1        -0.1830    3.1770    0.0720 O.2     1  UNL1       -0.2756
      2  C1        -0.1460    1.9150    0.1390 C.2     1  UNL1        0.2161
      3  C2         1.1750    1.2570    0.1010 C.3     1  UNL1        0.0309
      4  C3         2.2470    2.3000    0.0040 C.3     1  UNL1        0.0138
      5  C4         3.5810    1.6290   -0.0340 C.ar    1  UNL1        0.1108
      6  N1         3.7070    0.2910    0.0150 N.ar    1  UNL1       -0.2337
      7  C5         4.8990   -0.3420   -0.0180 C.ar    1  UNL1        0.0781
      8  C6         5.0120   -1.7110    0.0340 C.ar    1  UNL1       -0.0355
      9  C7         6.2290   -2.3480   -0.0000 C.ar    1  UNL1       -0.0597
     10  C8         7.3820   -1.5590   -0.0910 C.ar    1  UNL1       -0.0609
     11  C9         7.3090   -0.1840   -0.1450 C.ar    1  UNL1       -0.0474
     12  C10        6.0640    0.4040   -0.1070 C.ar    1  UNL1        0.0647
     13  C11        5.9320    1.7770   -0.1580 C.ar    1  UNL1        0.2592
     14  O2         6.9960    2.4600   -0.2390 O.2     1  UNL1       -0.2672
     15  N2         4.7100    2.3540   -0.1210 N.ar    1  UNL1       -0.3103
     16  N3        -1.3270    1.1380    0.2480 N.am    1  UNL1       -0.2985
     17  C12       -2.6020    1.8120    0.2820 C.3     1  UNL1        0.0304
     18  C13       -3.6620    0.8900    0.9020 C.3     1  UNL1        0.0280
     19  N4        -3.6240   -0.3450    0.1130 N.pl3   1  UNL1       -0.3269
     20  C14       -4.8380   -1.0840   -0.0530 C.ar    1  UNL1        0.0299
     21  C15       -4.8750   -2.1330   -0.9450 C.ar    1  UNL1       -0.0379
     22  C16       -6.0610   -2.8610   -1.1020 C.ar    1  UNL1       -0.0247
     23  C17       -7.1830   -2.5340   -0.3730 C.ar    1  UNL1        0.1235
     24  F1        -8.3600   -3.2290   -0.5060 F       1  UNL1       -0.2055
     25  C18       -7.1740   -1.4900    0.5250 C.ar    1  UNL1       -0.0247
     26  C19       -5.9810   -0.7840    0.6610 C.ar    1  UNL1       -0.0379
     27  C20       -2.4090   -0.8430   -0.4900 C.3     1  UNL1        0.0280
     28  C21       -1.2300   -0.2950    0.3240 C.3     1  UNL1        0.0304
     29 H           1.2276    0.6105   -0.7500 H       1  UNL1        0.0362
     30 H           1.3144    0.6825    0.9929 H       1  UNL1        0.0362
     31 H           2.1955    2.9467    0.8549 H       1  UNL1        0.0348
     32 H           2.1086    2.8769   -0.8864 H       1  UNL1        0.0348
     33 H           4.1535   -2.2798    0.1009 H       1  UNL1        0.0639
     34 H           6.2913   -3.3773    0.0403 H       1  UNL1        0.0618
     35 H           8.3064   -2.0170   -0.1182 H       1  UNL1        0.0618
     36 H           8.1642    0.3898   -0.2121 H       1  UNL1        0.0626
     37 H           4.6447    3.3356   -0.1589 H       1  UNL1        0.1700
     38 H          -2.8943    2.0694   -0.7146 H       1  UNL1        0.0480
     39 H          -2.5165    2.6995    0.8735 H       1  UNL1        0.0480
     40 H          -4.6302    1.3414    0.8419 H       1  UNL1        0.0479
     41 H          -3.4663    0.7034    1.9373 H       1  UNL1        0.0479
     42 H          -4.0361   -2.3803   -1.4928 H       1  UNL1        0.0637
     43 H          -6.0946   -3.6481   -1.7686 H       1  UNL1        0.0647
     44 H          -8.0130   -1.2420    1.0723 H       1  UNL1        0.0647
     45 H          -5.9499    0.0024    1.3286 H       1  UNL1        0.0637
     46 H          -2.3403   -0.5071   -1.5036 H       1  UNL1        0.0479
     47 H          -2.4006   -1.9130   -0.4908 H       1  UNL1        0.0479
     48 H          -1.2985   -0.6187    1.3416 H       1  UNL1        0.0480
     49 H          -0.2939   -0.6450   -0.0582 H       1  UNL1        0.0480
@<TRIPOS>BOND
     1     1     2    2
     2     2     3    1
     3     2    16   am
     4     3     4    1
     5     4     5    1
     6     5     6   ar
     7     5    15   ar
     8     6     7   ar
     9     7     8   ar
    10     7    12   ar
    11     8     9   ar
    12     9    10   ar
    13    10    11   ar
    14    11    12   ar
    15    12    13   ar
    16    13    14    2
    17    13    15   ar
    18    16    17    1
    19    16    28    1
    20    17    18    1
    21    18    19    1
    22    19    20    1
    23    19    27    1
    24    20    21   ar
    25    20    26   ar
    26    21    22   ar
    27    22    23   ar
    28    23    24    1
    29    23    25   ar
    30    25    26   ar
    31    27    28    1
    32     3    29    1
    33     3    30    1
    34     4    31    1
    35     4    32    1
    36     8    33    1
    37     9    34    1
    38    10    35    1
    39    11    36    1
    40    15    37    1
    41    17    38    1
    42    17    39    1
    43    18    40    1
    44    18    41    1
    45    21    42    1
    46    22    43    1
    47    25    44    1
    48    26    45    1
    49    27    46    1
    50    27    47    1
    51    28    48    1
    52    28    49    1
@<TRIPOS>MOLECULE
../data/bude_mols_rdkit_confs2/molecule_19.pdb
 49 52 0 0 0
SMALL
GASTEIGER

@<TRIPOS>ATOM
      1  O1        -0.8140    1.0550   -1.8410 O.2     1  UNL1       -0.2756
      2  C1        -0.2990    1.1710   -0.7180 C.2     1  UNL1        0.2161
      3  C2        -0.9020    1.9660    0.3410 C.3     1  UNL1        0.0309
      4  C3        -2.2370    2.5650    0.0820 C.3     1  UNL1        0.0138
      5  C4        -3.3340    1.6110   -0.1990 C.ar    1  UNL1        0.1108
      6  N1        -3.9980    1.0290    0.8500 N.ar    1  UNL1       -0.2337
      7  C5        -5.0210    0.1790    0.6700 C.ar    1  UNL1        0.0781
      8  C6        -5.6860   -0.4060    1.7400 C.ar    1  UNL1       -0.0355
      9  C7        -6.7390   -1.2800    1.5640 C.ar    1  UNL1       -0.0597
     10  C8        -7.1760   -1.6110    0.2980 C.ar    1  UNL1       -0.0609
     11  C9        -6.5130   -1.0280   -0.7610 C.ar    1  UNL1       -0.0474
     12  C10       -5.4610   -0.1540   -0.5930 C.ar    1  UNL1        0.0647
     13  C11       -4.7980    0.4280   -1.6500 C.ar    1  UNL1        0.2592
     14  O2        -5.1730    0.1460   -2.8100 O.2     1  UNL1       -0.2672
     15  N2        -3.7600    1.2890   -1.4250 N.ar    1  UNL1       -0.3103
     16  N3         0.9450    0.4710   -0.5120 N.am    1  UNL1       -0.2985
     17  C12        1.6470    0.5310    0.7680 C.3     1  UNL1        0.0304
     18  C13        3.0280    1.0640    0.4440 C.3     1  UNL1        0.0280
     19  N4         3.6440    0.0260   -0.3970 N.pl3   1  UNL1       -0.3269
     20  C14        4.7260   -0.7470    0.0700 C.ar    1  UNL1        0.0299
     21  C15        5.0350   -0.7810    1.4100 C.ar    1  UNL1       -0.0379
     22  C16        6.1180   -1.5390    1.8780 C.ar    1  UNL1       -0.0247
     23  C17        6.8970   -2.2670    1.0050 C.ar    1  UNL1        0.1235
     24  F1         7.9570   -3.0120    1.4470 F       1  UNL1       -0.2055
     25  C18        6.5990   -2.2410   -0.3370 C.ar    1  UNL1       -0.0247
     26  C19        5.5100   -1.4750   -0.7810 C.ar    1  UNL1       -0.0379
     27  C20        3.0270   -0.1180   -1.7060 C.3     1  UNL1        0.0280
     28  C21        1.5200   -0.3070   -1.5740 C.3     1  UNL1        0.0304
     29 H          -0.2291    2.7685    0.5604 H       1  UNL1        0.0362
     30 H          -1.0677    1.2720    1.1384 H       1  UNL1        0.0362
     31 H          -2.1453    3.2160   -0.7622 H       1  UNL1        0.0348
     32 H          -2.5115    3.0604    0.9898 H       1  UNL1        0.0348
     33 H          -5.3820   -0.1791    2.6997 H       1  UNL1        0.0639
     34 H          -7.2048   -1.6906    2.3883 H       1  UNL1        0.0618
     35 H          -7.9616   -2.2638    0.1507 H       1  UNL1        0.0618
     36 H          -6.8176   -1.2559   -1.7203 H       1  UNL1        0.0626
     37 H          -3.3056    1.6901   -2.2008 H       1  UNL1        0.1700
     38 H           1.7146   -0.4438    1.2041 H       1  UNL1        0.0480
     39 H           1.1359    1.1520    1.4738 H       1  UNL1        0.0480
     40 H           3.5955    1.2094    1.3394 H       1  UNL1        0.0479
     41 H           2.9892    2.0128   -0.0492 H       1  UNL1        0.0479
     42 H           4.4629   -0.2422    2.0789 H       1  UNL1        0.0637
     43 H           6.3339   -1.5518    2.8871 H       1  UNL1        0.0647
     44 H           7.1689   -2.7779   -1.0093 H       1  UNL1        0.0647
     45 H           5.2925   -1.4608   -1.7897 H       1  UNL1        0.0637
     46 H           3.4458   -0.9698   -2.1998 H       1  UNL1        0.0479
     47 H           3.2138    0.7695   -2.2737 H       1  UNL1        0.0479
     48 H           1.0587   -0.0188   -2.4954 H       1  UNL1        0.0480
     49 H           1.3468   -1.3376   -1.3442 H       1  UNL1        0.0480
@<TRIPOS>BOND
     1     1     2    2
     2     2     3    1
     3     2    16   am
     4     3     4    1
     5     4     5    1
     6     5     6   ar
     7     5    15   ar
     8     6     7   ar
     9     7     8   ar
    10     7    12   ar
    11     8     9   ar
    12     9    10   ar
    13    10    11   ar
    14    11    12   ar
    15    12    13   ar
    16    13    14    2
    17    13    15   ar
    18    16    17    1
    19    16    28    1
    20    17    18    1
    21    18    19    1
    22    19    20    1
    23    19    27    1
    24    20    21   ar
    25    20    26   ar
    26    21    22   ar
    27    22    23   ar
    28    23    24    1
    29    23    25   ar
    30    25    26   ar
    31    27    28    1
    32     3    29    1
    33     3    30    1
    34     4    31    1
    35     4    32    1
    36     8    33    1
    37     9    34    1
    38    10    35    1
    39    11    36    1
    40    15    37    1
    41    17    38    1
    42    17    39    1
    43    18    40    1
    44    18    41    1
    45    21    42    1
    46    22    43    1
    47    25    44    1
    48    26    45    1
    49    27    46    1
    50    27    47    1
    51    28    48    1
    52    28    49    1
@<TRIPOS>MOLECULE
../data/bude_mols_rdkit_confs2/molecule_19.pdb
 49 52 0 0 0
SMALL
GASTEIGER

@<TRIPOS>ATOM
      1  O1         0.0060    2.6320   -1.2630 O.2     1  UNL1       -0.2756
      2  C1         0.0800    1.4060   -0.9310 C.2     1  UNL1        0.2161
      3  C2        -1.2100    0.7080   -0.7010 C.3     1  UNL1        0.0309
      4  C3        -2.3700    1.6240   -0.9170 C.3     1  UNL1        0.0138
      5  C4        -3.6260    0.8920   -0.6790 C.ar    1  UNL1        0.1108
      6  N1        -4.1520    0.8730    0.5530 N.ar    1  UNL1       -0.2337
      7  C5        -5.2960    0.2230    0.8390 C.ar    1  UNL1        0.0781
      8  C6        -5.7830    0.2410    2.1190 C.ar    1  UNL1       -0.0355
      9  C7        -6.9610   -0.4260    2.4160 C.ar    1  UNL1       -0.0597
     10  C8        -7.5960   -1.0860    1.3970 C.ar    1  UNL1       -0.0609
     11  C9        -7.1180   -1.1120    0.1080 C.ar    1  UNL1       -0.0474
     12  C10       -5.9410   -0.4440   -0.1870 C.ar    1  UNL1        0.0647
     13  C11       -5.4090   -0.4300   -1.4550 C.ar    1  UNL1        0.2592
     14  O2        -5.9940   -1.0350   -2.3830 O.2     1  UNL1       -0.2672
     15  N2        -4.2500    0.2470   -1.6680 N.ar    1  UNL1       -0.3103
     16  N3         1.3320    0.7550   -0.7910 N.am    1  UNL1       -0.2985
     17  C12        1.4280   -0.6330   -0.4150 C.3     1  UNL1        0.0304
     18  C13        2.4720   -0.8620    0.6520 C.3     1  UNL1        0.0280
     19  N4         3.5920    0.0360    0.5220 N.pl3   1  UNL1       -0.3269
     20  C14        4.9010   -0.4560    0.6140 C.ar    1  UNL1        0.0299
     21  C15        5.9310    0.3640    1.0160 C.ar    1  UNL1       -0.0379
     22  C16        7.2540   -0.0760    1.1050 C.ar    1  UNL1       -0.0247
     23  C17        7.5750   -1.3760    0.7870 C.ar    1  UNL1        0.1235
     24  F1         8.8560   -1.8320    0.8660 F       1  UNL1       -0.2055
     25  C18        6.5680   -2.2220    0.3820 C.ar    1  UNL1       -0.0247
     26  C19        5.2610   -1.7680    0.2990 C.ar    1  UNL1       -0.0379
     27  C20        3.3450    1.4420    0.2750 C.3     1  UNL1        0.0280
     28  C21        2.5360    1.5060   -1.0320 C.3     1  UNL1        0.0304
     29 H          -1.2352    0.3453    0.3053 H       1  UNL1        0.0362
     30 H          -1.2847   -0.1008   -1.3975 H       1  UNL1        0.0362
     31 H          -2.3545    1.9877   -1.9232 H       1  UNL1        0.0348
     32 H          -2.3041    2.4485   -0.2382 H       1  UNL1        0.0348
     33 H          -5.2747    0.7493    2.8595 H       1  UNL1        0.0639
     34 H          -7.3471   -0.4256    3.3730 H       1  UNL1        0.0618
     35 H          -8.4737   -1.5868    1.6066 H       1  UNL1        0.0618
     36 H          -7.6290   -1.6221   -0.6293 H       1  UNL1        0.0626
     37 H          -3.8614    0.2623   -2.5724 H       1  UNL1        0.1700
     38 H           1.6868   -1.2075   -1.2798 H       1  UNL1        0.0480
     39 H           0.4806   -0.9331   -0.0186 H       1  UNL1        0.0480
     40 H           2.8271   -1.8685    0.5758 H       1  UNL1        0.0479
     41 H           2.0148   -0.6803    1.6022 H       1  UNL1        0.0479
     42 H           5.7173    1.3433    1.2616 H       1  UNL1        0.0637
     43 H           7.9933    0.5762    1.4103 H       1  UNL1        0.0647
     44 H           6.7873   -3.2006    0.1386 H       1  UNL1        0.0647
     45 H           4.5260   -2.4245   -0.0072 H       1  UNL1        0.0637
     46 H           4.2700    1.9687    0.1661 H       1  UNL1        0.0479
     47 H           2.8158    1.8959    1.0867 H       1  UNL1        0.0479
     48 H           2.2989    2.5212   -1.2731 H       1  UNL1        0.0480
     49 H           3.0895    1.1052   -1.8553 H       1  UNL1        0.0480
@<TRIPOS>BOND
     1     1     2    2
     2     2     3    1
     3     2    16   am
     4     3     4    1
     5     4     5    1
     6     5     6   ar
     7     5    15   ar
     8     6     7   ar
     9     7     8   ar
    10     7    12   ar
    11     8     9   ar
    12     9    10   ar
    13    10    11   ar
    14    11    12   ar
    15    12    13   ar
    16    13    14    2
    17    13    15   ar
    18    16    17    1
    19    16    28    1
    20    17    18    1
    21    18    19    1
    22    19    20    1
    23    19    27    1
    24    20    21   ar
    25    20    26   ar
    26    21    22   ar
    27    22    23   ar
    28    23    24    1
    29    23    25   ar
    30    25    26   ar
    31    27    28    1
    32     3    29    1
    33     3    30    1
    34     4    31    1
    35     4    32    1
    36     8    33    1
    37     9    34    1
    38    10    35    1
    39    11    36    1
    40    15    37    1
    41    17    38    1
    42    17    39    1
    43    18    40    1
    44    18    41    1
    45    21    42    1
    46    22    43    1
    47    25    44    1
    48    26    45    1
    49    27    46    1
    50    27    47    1
    51    28    48    1
    52    28    49    1
@<TRIPOS>MOLECULE
../data/bude_mols_rdkit_confs2/molecule_19.pdb
 49 52 0 0 0
SMALL
GASTEIGER

@<TRIPOS>ATOM
      1  O1         0.1210   -0.7580   -3.0650 O.2     1  UNL1       -0.2756
      2  C1         0.1140   -0.3440   -1.8650 C.2     1  UNL1        0.2161
      3  C2        -1.1820   -0.2750   -1.1330 C.3     1  UNL1        0.0309
      4  C3        -2.3360   -0.7220   -2.0020 C.3     1  UNL1        0.0138
      5  C4        -3.5620   -0.6120   -1.1780 C.ar    1  UNL1        0.1108
      6  N1        -4.2330    0.5540   -1.2010 N.ar    1  UNL1       -0.2337
      7  C5        -5.3530    0.7100   -0.4700 C.ar    1  UNL1        0.0781
      8  C6        -6.0480    1.8790   -0.4770 C.ar    1  UNL1       -0.0355
      9  C7        -7.2000    2.0530    0.2690 C.ar    1  UNL1       -0.0597
     10  C8        -7.6550    0.9940    1.0470 C.ar    1  UNL1       -0.0609
     11  C9        -6.9490   -0.1900    1.0520 C.ar    1  UNL1       -0.0474
     12  C10       -5.7990   -0.3460    0.3000 C.ar    1  UNL1        0.0647
     13  C11       -5.1220   -1.5340    0.3280 C.ar    1  UNL1        0.2592
     14  O2        -5.4860   -2.5210    1.0100 O.2     1  UNL1       -0.2672
     15  N2        -4.0090   -1.6290   -0.4240 N.ar    1  UNL1       -0.3103
     16  N3         1.2990    0.0490   -1.2140 N.am    1  UNL1       -0.2985
     17  C12        2.5580   -0.0150   -1.9150 C.3     1  UNL1        0.0304
     18  C13        3.4910   -0.8350   -1.0120 C.3     1  UNL1        0.0280
     19  N4         3.6980   -0.0380    0.1660 N.pl3   1  UNL1       -0.3269
     20  C14        4.9320   -0.1190    0.8700 C.ar    1  UNL1        0.0299
     21  C15        5.1650    0.7720    1.9280 C.ar    1  UNL1       -0.0379
     22  C16        6.3280    0.7520    2.6590 C.ar    1  UNL1       -0.0247
     23  C17        7.3020   -0.1840    2.3340 C.ar    1  UNL1        0.1235
     24  F1         8.4670   -0.2320    3.0370 F       1  UNL1       -0.2055
     25  C18        7.1030   -1.0650    1.3080 C.ar    1  UNL1       -0.0247
     26  C19        5.9280   -1.0290    0.5870 C.ar    1  UNL1       -0.0379
     27  C20        2.6810    0.8310    0.6500 C.3     1  UNL1        0.0280
     28  C21        1.3000    0.5140    0.1270 C.3     1  UNL1        0.0304
     29 H          -1.3520    0.7346   -0.8222 H       1  UNL1        0.0362
     30 H          -1.1251   -0.9300   -0.2888 H       1  UNL1        0.0362
     31 H          -2.1914   -1.7355   -2.3132 H       1  UNL1        0.0348
     32 H          -2.4099   -0.1174   -2.8817 H       1  UNL1        0.0348
     33 H          -5.7053    2.6608   -1.0570 H       1  UNL1        0.0639
     34 H          -7.7108    2.9495    0.2486 H       1  UNL1        0.0618
     35 H          -8.5114    1.0933    1.6142 H       1  UNL1        0.0618
     36 H          -7.2858   -0.9765    1.6291 H       1  UNL1        0.0626
     37 H          -3.5049   -2.4746   -0.4208 H       1  UNL1        0.1700
     38 H           2.9525    0.9682   -2.0652 H       1  UNL1        0.0480
     39 H           2.4509   -0.4598   -2.8823 H       1  UNL1        0.0480
     40 H           4.4222   -1.0174   -1.5065 H       1  UNL1        0.0479
     41 H           3.0686   -1.7885   -0.7725 H       1  UNL1        0.0479
     42 H           4.4386    1.4656    2.1652 H       1  UNL1        0.0637
     43 H           6.4751    1.4182    3.4333 H       1  UNL1        0.0647
     44 H           7.8318   -1.7568    1.0730 H       1  UNL1        0.0647
     45 H           5.7908   -1.7007   -0.1844 H       1  UNL1        0.0637
     46 H           2.9283    1.8313    0.3617 H       1  UNL1        0.0479
     47 H           2.6459    0.7042    1.7119 H       1  UNL1        0.0479
     48 H           0.8670   -0.2417    0.7485 H       1  UNL1        0.0480
     49 H           0.7378    1.4242    0.1465 H       1  UNL1        0.0480
@<TRIPOS>BOND
     1     1     2    2
     2     2     3    1
     3     2    16   am
     4     3     4    1
     5     4     5    1
     6     5     6   ar
     7     5    15   ar
     8     6     7   ar
     9     7     8   ar
    10     7    12   ar
    11     8     9   ar
    12     9    10   ar
    13    10    11   ar
    14    11    12   ar
    15    12    13   ar
    16    13    14    2
    17    13    15   ar
    18    16    17    1
    19    16    28    1
    20    17    18    1
    21    18    19    1
    22    19    20    1
    23    19    27    1
    24    20    21   ar
    25    20    26   ar
    26    21    22   ar
    27    22    23   ar
    28    23    24    1
    29    23    25   ar
    30    25    26   ar
    31    27    28    1
    32     3    29    1
    33     3    30    1
    34     4    31    1
    35     4    32    1
    36     8    33    1
    37     9    34    1
    38    10    35    1
    39    11    36    1
    40    15    37    1
    41    17    38    1
    42    17    39    1
    43    18    40    1
    44    18    41    1
    45    21    42    1
    46    22    43    1
    47    25    44    1
    48    26    45    1
    49    27    46    1
    50    27    47    1
    51    28    48    1
    52    28    49    1
@<TRIPOS>MOLECULE
../data/bude_mols_rdkit_confs2/molecule_19.pdb
 49 52 0 0 0
SMALL
GASTEIGER

@<TRIPOS>ATOM
      1  O1         0.4750   -3.0950    0.5890 O.2     1  UNL1       -0.2756
      2  C1         0.1950   -1.8470    0.6460 C.2     1  UNL1        0.2161
      3  C2         1.2970   -0.8490    0.7140 C.3     1  UNL1        0.0309
      4  C3         2.6080   -1.5850    0.7420 C.3     1  UNL1        0.0138
      5  C4         3.7040   -0.5830    0.8070 C.ar    1  UNL1        0.1108
      6  N1         4.2690   -0.0870   -0.3170 N.ar    1  UNL1       -0.2337
      7  C5         5.2670    0.8270   -0.2620 C.ar    1  UNL1        0.0781
      8  C6         5.8310    1.3190   -1.4270 C.ar    1  UNL1       -0.0355
      9  C7         6.8470    2.2470   -1.4040 C.ar    1  UNL1       -0.0597
     10  C8         7.2900    2.6760   -0.1680 C.ar    1  UNL1       -0.0609
     11  C9         6.7440    2.2000    0.9950 C.ar    1  UNL1       -0.0474
     12  C10        5.7330    1.2760    0.9660 C.ar    1  UNL1        0.0647
     13  C11        5.1550    0.7680    2.1040 C.ar    1  UNL1        0.2592
     14  O2         5.5950    1.1910    3.2060 O.2     1  UNL1       -0.2672
     15  N2         4.1750   -0.1310    1.9760 N.ar    1  UNL1       -0.3103
     16  N3        -1.1570   -1.4460    0.6420 N.am    1  UNL1       -0.2985
     17  C12       -2.2060   -2.4080    0.5810 C.3     1  UNL1        0.0304
     18  C13       -3.5480   -1.9000    0.2090 C.3     1  UNL1        0.0280
     19  N4        -3.6160   -0.5580   -0.2860 N.pl3   1  UNL1       -0.3269
     20  C14       -4.8860   -0.0020   -0.5460 C.ar    1  UNL1        0.0299
     21  C15       -6.0550   -0.7310   -0.2980 C.ar    1  UNL1       -0.0379
     22  C16       -7.3170   -0.2380   -0.5300 C.ar    1  UNL1       -0.0247
     23  C17       -7.4830    1.0240   -1.0290 C.ar    1  UNL1        0.1235
     24  F1        -8.7300    1.5030   -1.2550 F       1  UNL1       -0.2055
     25  C18       -6.3470    1.7580   -1.2810 C.ar    1  UNL1       -0.0247
     26  C19       -5.0600    1.2650   -1.0470 C.ar    1  UNL1       -0.0379
     27  C20       -2.4220    0.1950   -0.5070 C.3     1  UNL1        0.0280
     28  C21       -1.4930   -0.0480    0.7000 C.3     1  UNL1        0.0304
     29 H           1.1954   -0.2593    1.6011 H       1  UNL1        0.0362
     30 H           1.2583   -0.2024   -0.1376 H       1  UNL1        0.0362
     31 H           2.7102   -2.1761   -0.1440 H       1  UNL1        0.0348
     32 H           2.6493   -2.2325    1.5928 H       1  UNL1        0.0348
     33 H           5.4801    0.9808   -2.3367 H       1  UNL1        0.0639
     34 H           7.2621    2.6086   -2.2769 H       1  UNL1        0.0618
     35 H           8.0506    3.3718   -0.1194 H       1  UNL1        0.0618
     36 H           7.0981    2.5411    1.9024 H       1  UNL1        0.0626
     37 H           3.7703   -0.4865    2.8001 H       1  UNL1        0.1700
     38 H          -2.2866   -2.8629    1.5461 H       1  UNL1        0.0480
     39 H          -1.9294   -3.0794   -0.2048 H       1  UNL1        0.0480
     40 H          -4.1679   -1.9558    1.0793 H       1  UNL1        0.0479
     41 H          -3.8642   -2.5157   -0.6070 H       1  UNL1        0.0479
     42 H          -5.9647   -1.6877    0.0783 H       1  UNL1        0.0637
     43 H          -8.1426   -0.8229   -0.3267 H       1  UNL1        0.0647
     44 H          -6.4493    2.7129   -1.6588 H       1  UNL1        0.0647
     45 H          -4.2381    1.8548   -1.2513 H       1  UNL1        0.0637
     46 H          -2.6555    1.2363   -0.5849 H       1  UNL1        0.0479
     47 H          -1.9469   -0.1086   -1.4164 H       1  UNL1        0.0479
     48 H          -0.6114    0.5533    0.6220 H       1  UNL1        0.0480
     49 H          -1.9631    0.2123    1.6253 H       1  UNL1        0.0480
@<TRIPOS>BOND
     1     1     2    2
     2     2     3    1
     3     2    16   am
     4     3     4    1
     5     4     5    1
     6     5     6   ar
     7     5    15   ar
     8     6     7   ar
     9     7     8   ar
    10     7    12   ar
    11     8     9   ar
    12     9    10   ar
    13    10    11   ar
    14    11    12   ar
    15    12    13   ar
    16    13    14    2
    17    13    15   ar
    18    16    17    1
    19    16    28    1
    20    17    18    1
    21    18    19    1
    22    19    20    1
    23    19    27    1
    24    20    21   ar
    25    20    26   ar
    26    21    22   ar
    27    22    23   ar
    28    23    24    1
    29    23    25   ar
    30    25    26   ar
    31    27    28    1
    32     3    29    1
    33     3    30    1
    34     4    31    1
    35     4    32    1
    36     8    33    1
    37     9    34    1
    38    10    35    1
    39    11    36    1
    40    15    37    1
    41    17    38    1
    42    17    39    1
    43    18    40    1
    44    18    41    1
    45    21    42    1
    46    22    43    1
    47    25    44    1
    48    26    45    1
    49    27    46    1
    50    27    47    1
    51    28    48    1
    52    28    49    1
@<TRIPOS>MOLECULE
../data/bude_mols_rdkit_confs2/molecule_19.pdb
 49 52 0 0 0
SMALL
GASTEIGER

@<TRIPOS>ATOM
      1  O1         0.9380   -1.8960    0.8490 O.2     1  UNL1       -0.2756
      2  C1         0.4920   -1.3610   -0.1840 C.2     1  UNL1        0.2161
      3  C2         1.1410   -1.3070   -1.4920 C.3     1  UNL1        0.0309
      4  C3         2.4960   -1.9350   -1.5690 C.3     1  UNL1        0.0138
      5  C4         3.4730   -1.2860   -0.6620 C.ar    1  UNL1        0.1108
      6  N1         4.0990   -0.1360   -1.0650 N.ar    1  UNL1       -0.2337
      7  C5         5.0210    0.5000   -0.3320 C.ar    1  UNL1        0.0781
      8  C6         5.6310    1.6590   -0.7710 C.ar    1  UNL1       -0.0355
      9  C7         6.5880    2.3130   -0.0050 C.ar    1  UNL1       -0.0597
     10  C8         6.9490    1.8030    1.2320 C.ar    1  UNL1       -0.0609
     11  C9         6.3410    0.6390    1.6830 C.ar    1  UNL1       -0.0474
     12  C10        5.3960    0.0130    0.9000 C.ar    1  UNL1        0.0647
     13  C11        4.7750   -1.1420    1.3150 C.ar    1  UNL1        0.2592
     14  O2         5.0940   -1.6130    2.4340 O.2     1  UNL1       -0.2672
     15  N2         3.8380   -1.7610    0.5360 N.ar    1  UNL1       -0.3103
     16  N3        -0.7880   -0.7450   -0.0460 N.am    1  UNL1       -0.2985
     17  C12       -1.5110   -0.7450    1.2180 C.3     1  UNL1        0.0304
     18  C13       -3.0080   -0.8150    0.8960 C.3     1  UNL1        0.0280
     19  N4        -3.4010    0.2780    0.0180 N.pl3   1  UNL1       -0.3269
     20  C14       -4.7710    0.5630   -0.1130 C.ar    1  UNL1        0.0299
     21  C15       -5.7220   -0.1800    0.5410 C.ar    1  UNL1       -0.0379
     22  C16       -7.0740    0.0880    0.4240 C.ar    1  UNL1       -0.0247
     23  C17       -7.5330    1.1180   -0.3560 C.ar    1  UNL1        0.1235
     24  F1        -8.8580    1.3780   -0.4690 F       1  UNL1       -0.2055
     25  C18       -6.6010    1.8760   -1.0200 C.ar    1  UNL1       -0.0247
     26  C19       -5.2470    1.6030   -0.9000 C.ar    1  UNL1       -0.0379
     27  C20       -2.3290    0.9800   -0.6520 C.3     1  UNL1        0.0280
     28  C21       -1.3920   -0.1040   -1.1900 C.3     1  UNL1        0.0304
     29 H           1.2392   -0.2779   -1.7682 H       1  UNL1        0.0362
     30 H           0.5180   -1.8750   -2.1508 H       1  UNL1        0.0362
     31 H           2.8548   -1.8555   -2.5739 H       1  UNL1        0.0348
     32 H           2.3993   -2.9568   -1.2665 H       1  UNL1        0.0348
     33 H           5.3696    2.0485   -1.6902 H       1  UNL1        0.0639
     34 H           7.0293    3.1771   -0.3566 H       1  UNL1        0.0618
     35 H           7.6587    2.2809    1.8090 H       1  UNL1        0.0618
     36 H           6.5961    0.2441    2.6017 H       1  UNL1        0.0626
     37 H           3.4159   -2.5863    0.8676 H       1  UNL1        0.1700
     38 H          -1.2962    0.1515    1.7611 H       1  UNL1        0.0480
     39 H          -1.2166   -1.5798    1.8192 H       1  UNL1        0.0480
     40 H          -3.5659   -0.7509    1.8068 H       1  UNL1        0.0479
     41 H          -3.2086   -1.7417    0.4000 H       1  UNL1        0.0479
     42 H          -5.4184   -0.9641    1.1394 H       1  UNL1        0.0637
     43 H          -7.7515   -0.4997    0.9346 H       1  UNL1        0.0647
     44 H          -6.9120    2.6590   -1.6160 H       1  UNL1        0.0647
     45 H          -4.5714    2.1916   -1.4120 H       1  UNL1        0.0637
     46 H          -1.8098    1.6125    0.0375 H       1  UNL1        0.0479
     47 H          -2.6987    1.6058   -1.4372 H       1  UNL1        0.0479
     48 H          -1.9466   -0.8187   -1.7615 H       1  UNL1        0.0480
     49 H          -0.6455    0.3191   -1.8292 H       1  UNL1        0.0480
@<TRIPOS>BOND
     1     1     2    2
     2     2     3    1
     3     2    16   am
     4     3     4    1
     5     4     5    1
     6     5     6   ar
     7     5    15   ar
     8     6     7   ar
     9     7     8   ar
    10     7    12   ar
    11     8     9   ar
    12     9    10   ar
    13    10    11   ar
    14    11    12   ar
    15    12    13   ar
    16    13    14    2
    17    13    15   ar
    18    16    17    1
    19    16    28    1
    20    17    18    1
    21    18    19    1
    22    19    20    1
    23    19    27    1
    24    20    21   ar
    25    20    26   ar
    26    21    22   ar
    27    22    23   ar
    28    23    24    1
    29    23    25   ar
    30    25    26   ar
    31    27    28    1
    32     3    29    1
    33     3    30    1
    34     4    31    1
    35     4    32    1
    36     8    33    1
    37     9    34    1
    38    10    35    1
    39    11    36    1
    40    15    37    1
    41    17    38    1
    42    17    39    1
    43    18    40    1
    44    18    41    1
    45    21    42    1
    46    22    43    1
    47    25    44    1
    48    26    45    1
    49    27    46    1
    50    27    47    1
    51    28    48    1
    52    28    49    1
@<TRIPOS>MOLECULE
../data/bude_mols_rdkit_confs2/molecule_19.pdb
 49 52 0 0 0
SMALL
GASTEIGER

@<TRIPOS>ATOM
      1  O1        -1.3560    0.8820   -1.2630 O.2     1  UNL1       -0.2756
      2  C1        -0.5380   -0.0550   -1.1450 C.2     1  UNL1        0.2161
      3  C2        -0.8330   -1.3600   -1.7580 C.3     1  UNL1        0.0309
      4  C3        -2.1910   -1.4920   -2.3730 C.3     1  UNL1        0.0138
      5  C4        -3.2290   -1.3170   -1.3530 C.ar    1  UNL1        0.1108
      6  N1        -3.7490   -0.1130   -1.1110 N.ar    1  UNL1       -0.2337
      7  C5        -4.7120    0.0750   -0.1720 C.ar    1  UNL1        0.0781
      8  C6        -5.2230    1.3300    0.0490 C.ar    1  UNL1       -0.0355
      9  C7        -6.2140    1.5440    1.0100 C.ar    1  UNL1       -0.0597
     10  C8        -6.6930    0.4860    1.7550 C.ar    1  UNL1       -0.0609
     11  C9        -6.1600   -0.7630    1.5100 C.ar    1  UNL1       -0.0474
     12  C10       -5.1860   -0.9900    0.5690 C.ar    1  UNL1        0.0647
     13  C11       -4.6430   -2.2410    0.3140 C.ar    1  UNL1        0.2592
     14  O2        -5.0570   -3.2080    0.9700 O.2     1  UNL1       -0.2672
     15  N2        -3.6770   -2.3640   -0.6440 N.ar    1  UNL1       -0.3103
     16  N3         0.6530    0.1630   -0.4250 N.am    1  UNL1       -0.2985
     17  C12        0.8940    1.4630    0.1580 C.3     1  UNL1        0.0304
     18  C13        2.3390    1.7960    0.2980 C.3     1  UNL1        0.0280
     19  N4         3.1720    0.6210    0.6040 N.pl3   1  UNL1       -0.3269
     20  C14        4.5790    0.7020    0.5450 C.ar    1  UNL1        0.0299
     21  C15        5.3810   -0.3730    0.7730 C.ar    1  UNL1       -0.0379
     22  C16        6.7730   -0.2660    0.7130 C.ar    1  UNL1       -0.0247
     23  C17        7.3090    0.9750    0.4120 C.ar    1  UNL1        0.1235
     24  F1         8.6700    1.0990    0.3490 F       1  UNL1       -0.2055
     25  C18        6.5110    2.0770    0.1780 C.ar    1  UNL1       -0.0247
     26  C19        5.1420    1.9360    0.2450 C.ar    1  UNL1       -0.0379
     27  C20        2.4240   -0.5660    0.9580 C.3     1  UNL1        0.0280
     28  C21        1.6070   -0.9120   -0.2860 C.3     1  UNL1        0.0304
     29 H          -0.7408   -2.1088   -0.9992 H       1  UNL1        0.0362
     30 H          -0.1352   -1.4710   -2.5615 H       1  UNL1        0.0362
     31 H          -2.2872   -2.4631   -2.8118 H       1  UNL1        0.0348
     32 H          -2.3088   -0.7382   -3.1232 H       1  UNL1        0.0348
     33 H          -4.8697    2.1271   -0.5031 H       1  UNL1        0.0639
     34 H          -6.5879    2.4937    1.1628 H       1  UNL1        0.0618
     35 H          -7.4241    0.6239    2.4702 H       1  UNL1        0.0618
     36 H          -6.5096   -1.5636    2.0594 H       1  UNL1        0.0626
     37 H          -3.2954   -3.2542   -0.8207 H       1  UNL1        0.1700
     38 H           0.4460    1.4862    1.1294 H       1  UNL1        0.0480
     39 H           0.4682    2.1874   -0.5044 H       1  UNL1        0.0480
     40 H           2.4499    2.5082    1.0888 H       1  UNL1        0.0479
     41 H           2.6701    2.1879   -0.6410 H       1  UNL1        0.0479
     42 H           4.9529   -1.2855    0.9946 H       1  UNL1        0.0637
     43 H           7.3798   -1.0824    0.8868 H       1  UNL1        0.0647
     44 H           6.9333    2.9922   -0.0437 H       1  UNL1        0.0647
     45 H           4.5324    2.7505    0.0716 H       1  UNL1        0.0637
     46 H           1.7781   -0.3686    1.7879 H       1  UNL1        0.0479
     47 H           3.0661   -1.3703    1.2506 H       1  UNL1        0.0479
     48 H           2.2397   -0.9656   -1.1472 H       1  UNL1        0.0480
     49 H           1.1261   -1.8636   -0.1961 H       1  UNL1        0.0480
@<TRIPOS>BOND
     1     1     2    2
     2     2     3    1
     3     2    16   am
     4     3     4    1
     5     4     5    1
     6     5     6   ar
     7     5    15   ar
     8     6     7   ar
     9     7     8   ar
    10     7    12   ar
    11     8     9   ar
    12     9    10   ar
    13    10    11   ar
    14    11    12   ar
    15    12    13   ar
    16    13    14    2
    17    13    15   ar
    18    16    17    1
    19    16    28    1
    20    17    18    1
    21    18    19    1
    22    19    20    1
    23    19    27    1
    24    20    21   ar
    25    20    26   ar
    26    21    22   ar
    27    22    23   ar
    28    23    24    1
    29    23    25   ar
    30    25    26   ar
    31    27    28    1
    32     3    29    1
    33     3    30    1
    34     4    31    1
    35     4    32    1
    36     8    33    1
    37     9    34    1
    38    10    35    1
    39    11    36    1
    40    15    37    1
    41    17    38    1
    42    17    39    1
    43    18    40    1
    44    18    41    1
    45    21    42    1
    46    22    43    1
    47    25    44    1
    48    26    45    1
    49    27    46    1
    50    27    47    1
    51    28    48    1
    52    28    49    1
@<TRIPOS>MOLECULE
../data/bude_mols_rdkit_confs2/molecule_19.pdb
 49 52 0 0 0
SMALL
GASTEIGER

@<TRIPOS>ATOM
      1  O1        -0.0550    2.8110    1.2050 O.2     1  UNL1       -0.2756
      2  C1         0.0390    1.5910    0.9360 C.2     1  UNL1        0.2161
      3  C2        -1.1440    0.8500    0.4610 C.3     1  UNL1        0.0309
      4  C3        -2.3610    1.7730    0.3750 C.3     1  UNL1        0.0138
      5  C4        -3.5510    1.0130   -0.1060 C.ar    1  UNL1        0.1108
      6  N1        -4.3910    0.3910    0.7430 N.ar    1  UNL1       -0.2337
      7  C5        -5.4690   -0.2990    0.3310 C.ar    1  UNL1        0.0781
      8  C6        -6.3300   -0.9370    1.2150 C.ar    1  UNL1       -0.0355
      9  C7        -7.4330   -1.6430    0.7750 C.ar    1  UNL1       -0.0597
     10  C8        -7.6840   -1.7150   -0.5670 C.ar    1  UNL1       -0.0609
     11  C9        -6.8570   -1.0980   -1.4790 C.ar    1  UNL1       -0.0474
     12  C10       -5.7620   -0.3990   -1.0130 C.ar    1  UNL1        0.0647
     13  C11       -4.9040    0.2360   -1.8880 C.ar    1  UNL1        0.2592
     14  O2        -5.1640    0.1490   -3.1070 O.2     1  UNL1       -0.2672
     15  N2        -3.8280    0.9210   -1.4200 N.ar    1  UNL1       -0.3103
     16  N3         1.2670    0.9260    1.0860 N.am    1  UNL1       -0.2985
     17  C12        1.3730   -0.4720    0.7780 C.3     1  UNL1        0.0304
     18  C13        2.5010   -0.6770   -0.1990 C.3     1  UNL1        0.0280
     19  N4         3.6350    0.2010    0.0630 N.pl3   1  UNL1       -0.3269
     20  C14        4.9240   -0.3570   -0.0690 C.ar    1  UNL1        0.0299
     21  C15        5.9860    0.2140    0.5680 C.ar    1  UNL1       -0.0379
     22  C16        7.2770   -0.3090    0.4410 C.ar    1  UNL1       -0.0247
     23  C17        7.4930   -1.4150   -0.3350 C.ar    1  UNL1        0.1235
     24  F1         8.7380   -1.9550   -0.4840 F       1  UNL1       -0.2055
     25  C18        6.4300   -1.9920   -0.9770 C.ar    1  UNL1       -0.0247
     26  C19        5.1630   -1.4790   -0.8530 C.ar    1  UNL1       -0.0379
     27  C20        3.4420    1.5700    0.4150 C.3     1  UNL1        0.0280
     28  C21        2.4280    1.6390    1.5490 C.3     1  UNL1        0.0304
     29 H          -1.3556    0.0522    1.1419 H       1  UNL1        0.0362
     30 H          -0.9377    0.4607   -0.5141 H       1  UNL1        0.0362
     31 H          -2.1520    2.5709   -0.3066 H       1  UNL1        0.0348
     32 H          -2.5688    2.1682    1.3474 H       1  UNL1        0.0348
     33 H          -6.1405   -0.8821    2.2280 H       1  UNL1        0.0639
     34 H          -8.0588   -2.1096    1.4500 H       1  UNL1        0.0618
     35 H          -8.5067   -2.2403   -0.9020 H       1  UNL1        0.0618
     36 H          -7.0521   -1.1571   -2.4907 H       1  UNL1        0.0626
     37 H          -3.2305    1.3653   -2.0640 H       1  UNL1        0.1700
     38 H           0.4566   -0.8139    0.3442 H       1  UNL1        0.0480
     39 H           1.5665   -1.0249    1.6734 H       1  UNL1        0.0480
     40 H           2.1384   -0.4832   -1.1869 H       1  UNL1        0.0479
     41 H           2.8411   -1.6861   -0.0948 H       1  UNL1        0.0479
     42 H           5.8341    1.0487    1.1555 H       1  UNL1        0.0637
     43 H           8.0662    0.1391    0.9323 H       1  UNL1        0.0647
     44 H           6.5841   -2.8267   -1.5640 H       1  UNL1        0.0647
     45 H           4.3787   -1.9319   -1.3478 H       1  UNL1        0.0637
     46 H           3.0745    2.1119   -0.4313 H       1  UNL1        0.0479
     47 H           4.3698    2.0029    0.7260 H       1  UNL1        0.0479
     48 H           2.8224    1.1758    2.4292 H       1  UNL1        0.0480
     49 H           2.1914    2.6513    1.8024 H       1  UNL1        0.0480
@<TRIPOS>BOND
     1     1     2    2
     2     2     3    1
     3     2    16   am
     4     3     4    1
     5     4     5    1
     6     5     6   ar
     7     5    15   ar
     8     6     7   ar
     9     7     8   ar
    10     7    12   ar
    11     8     9   ar
    12     9    10   ar
    13    10    11   ar
    14    11    12   ar
    15    12    13   ar
    16    13    14    2
    17    13    15   ar
    18    16    17    1
    19    16    28    1
    20    17    18    1
    21    18    19    1
    22    19    20    1
    23    19    27    1
    24    20    21   ar
    25    20    26   ar
    26    21    22   ar
    27    22    23   ar
    28    23    24    1
    29    23    25   ar
    30    25    26   ar
    31    27    28    1
    32     3    29    1
    33     3    30    1
    34     4    31    1
    35     4    32    1
    36     8    33    1
    37     9    34    1
    38    10    35    1
    39    11    36    1
    40    15    37    1
    41    17    38    1
    42    17    39    1
    43    18    40    1
    44    18    41    1
    45    21    42    1
    46    22    43    1
    47    25    44    1
    48    26    45    1
    49    27    46    1
    50    27    47    1
    51    28    48    1
    52    28    49    1
@<TRIPOS>MOLECULE
../data/bude_mols_rdkit_confs2/molecule_19.pdb
 49 52 0 0 0
SMALL
GASTEIGER

@<TRIPOS>ATOM
      1  O1        -1.1340   -0.2590   -1.4310 O.2     1  UNL1       -0.2756
      2  C1        -0.4980   -0.8640   -0.5150 C.2     1  UNL1        0.2161
      3  C2        -0.9430   -2.1900   -0.0940 C.3     1  UNL1        0.0309
      4  C3        -2.2020   -2.6470   -0.8070 C.3     1  UNL1        0.0138
      5  C4        -3.2730   -1.6700   -0.4860 C.ar    1  UNL1        0.1108
      6  N1        -3.1200   -0.5970    0.3050 N.ar    1  UNL1       -0.2337
      7  C5        -4.1020    0.2720    0.5800 C.ar    1  UNL1        0.0781
      8  C6        -3.9490    1.3730    1.3910 C.ar    1  UNL1       -0.0355
      9  C7        -4.9760    2.2510    1.6570 C.ar    1  UNL1       -0.0597
     10  C8        -6.2010    2.0160    1.0900 C.ar    1  UNL1       -0.0609
     11  C9        -6.3550    0.9060    0.2720 C.ar    1  UNL1       -0.0474
     12  C10       -5.3450    0.0250   -0.0010 C.ar    1  UNL1        0.0647
     13  C11       -5.5290   -1.0690   -0.8180 C.ar    1  UNL1        0.2592
     14  O2        -6.6630   -1.2780   -1.3370 O.2     1  UNL1       -0.2672
     15  N2        -4.4820   -1.8890   -1.0370 N.ar    1  UNL1       -0.3103
     16  N3         0.6220   -0.2670    0.0870 N.am    1  UNL1       -0.2985
     17  C12        1.0510    1.0440   -0.3390 C.3     1  UNL1        0.0304
     18  C13        2.1980    1.5070    0.5800 C.3     1  UNL1        0.0280
     19  N4         3.2000    0.4700    0.4690 N.pl3   1  UNL1       -0.3269
     20  C14        4.4530    0.6940   -0.1320 C.ar    1  UNL1        0.0299
     21  C15        5.4050   -0.3300   -0.0660 C.ar    1  UNL1       -0.0379
     22  C16        6.6570   -0.1960   -0.6330 C.ar    1  UNL1       -0.0247
     23  C17        7.0270    0.9550   -1.2920 C.ar    1  UNL1        0.1235
     24  F1         8.2660    1.0590   -1.8400 F       1  UNL1       -0.2055
     25  C18        6.0980    1.9640   -1.3610 C.ar    1  UNL1       -0.0247
     26  C19        4.8330    1.8310   -0.7900 C.ar    1  UNL1       -0.0379
     27  C20        2.8380   -0.8250    1.0110 C.3     1  UNL1        0.0280
     28  C21        1.3230   -0.9760    1.1240 C.3     1  UNL1        0.0304
     29 H          -1.1364   -2.1666    0.9581 H       1  UNL1        0.0362
     30 H          -0.1656   -2.8822   -0.3420 H       1  UNL1        0.0362
     31 H          -2.4820   -3.6219   -0.4662 H       1  UNL1        0.0348
     32 H          -2.0408   -2.6976   -1.8636 H       1  UNL1        0.0348
     33 H          -3.0259    1.5481    1.8178 H       1  UNL1        0.0639
     34 H          -4.8263    3.0678    2.2698 H       1  UNL1        0.0618
     35 H          -6.9938    2.6523    1.2679 H       1  UNL1        0.0618
     36 H          -7.2801    0.7362   -0.1527 H       1  UNL1        0.0626
     37 H          -4.6052   -2.6736   -1.6188 H       1  UNL1        0.1700
     38 H           0.2337    1.7311   -0.2700 H       1  UNL1        0.0480
     39 H           1.3872    1.0073   -1.3541 H       1  UNL1        0.0480
     40 H           1.8586    1.5969    1.5908 H       1  UNL1        0.0479
     41 H           2.5775    2.4676    0.3006 H       1  UNL1        0.0479
     42 H           5.1648   -1.2085    0.4193 H       1  UNL1        0.0637
     43 H           7.3298   -0.9753   -0.5613 H       1  UNL1        0.0647
     44 H           6.3419    2.8412   -1.8469 H       1  UNL1        0.0647
     45 H           4.1641    2.6132   -0.8661 H       1  UNL1        0.0637
     46 H           3.2720   -0.9294    1.9834 H       1  UNL1        0.0479
     47 H           3.2041   -1.5820    0.3494 H       1  UNL1        0.0479
     48 H           1.0754   -2.0148    1.0577 H       1  UNL1        0.0480
     49 H           1.0230   -0.5604    2.0633 H       1  UNL1        0.0480
@<TRIPOS>BOND
     1     1     2    2
     2     2     3    1
     3     2    16   am
     4     3     4    1
     5     4     5    1
     6     5     6   ar
     7     5    15   ar
     8     6     7   ar
     9     7     8   ar
    10     7    12   ar
    11     8     9   ar
    12     9    10   ar
    13    10    11   ar
    14    11    12   ar
    15    12    13   ar
    16    13    14    2
    17    13    15   ar
    18    16    17    1
    19    16    28    1
    20    17    18    1
    21    18    19    1
    22    19    20    1
    23    19    27    1
    24    20    21   ar
    25    20    26   ar
    26    21    22   ar
    27    22    23   ar
    28    23    24    1
    29    23    25   ar
    30    25    26   ar
    31    27    28    1
    32     3    29    1
    33     3    30    1
    34     4    31    1
    35     4    32    1
    36     8    33    1
    37     9    34    1
    38    10    35    1
    39    11    36    1
    40    15    37    1
    41    17    38    1
    42    17    39    1
    43    18    40    1
    44    18    41    1
    45    21    42    1
    46    22    43    1
    47    25    44    1
    48    26    45    1
    49    27    46    1
    50    27    47    1
    51    28    48    1
    52    28    49    1
@<TRIPOS>MOLECULE
../data/bude_mols_rdkit_confs2/molecule_19.pdb
 49 52 0 0 0
SMALL
GASTEIGER

@<TRIPOS>ATOM
      1  O1         1.1260    0.2960    1.2820 O.2     1  UNL1       -0.2756
      2  C1         0.4510   -0.5170    0.5640 C.2     1  UNL1        0.2161
      3  C2         1.0550   -1.8490    0.2610 C.3     1  UNL1        0.0309
      4  C3         2.4550   -1.9670    0.7440 C.3     1  UNL1        0.0138
      5  C4         3.4090   -1.0130    0.1510 C.ar    1  UNL1        0.1108
      6  N1         4.6760   -1.0630    0.6280 N.ar    1  UNL1       -0.2337
      7  C5         5.6620   -0.2680    0.1870 C.ar    1  UNL1        0.0781
      8  C6         6.9520   -0.3260    0.6790 C.ar    1  UNL1       -0.0355
      9  C7         7.9590    0.4840    0.2310 C.ar    1  UNL1       -0.0597
     10  C8         7.6530    1.3960   -0.7610 C.ar    1  UNL1       -0.0609
     11  C9         6.3900    1.4900   -1.2790 C.ar    1  UNL1       -0.0474
     12  C10        5.4050    0.6580   -0.8020 C.ar    1  UNL1        0.0647
     13  C11        4.1070    0.6920   -1.2730 C.ar    1  UNL1        0.2592
     14  O2         3.8290    1.5240   -2.1770 O.2     1  UNL1       -0.2672
     15  N2         3.1430   -0.1250   -0.8040 N.ar    1  UNL1       -0.3103
     16  N3        -0.8340   -0.1500    0.0790 N.am    1  UNL1       -0.2985
     17  C12       -1.3550    1.1590    0.4150 C.3     1  UNL1        0.0304
     18  C13       -2.8290    1.1230    0.7150 C.3     1  UNL1        0.0280
     19  N4        -3.5550    0.2170   -0.1450 N.pl3   1  UNL1       -0.3269
     20  C14       -4.9850    0.3310   -0.1590 C.ar    1  UNL1        0.0299
     21  C15       -5.7880   -0.4410   -0.9740 C.ar    1  UNL1       -0.0379
     22  C16       -7.1660   -0.3400   -0.9930 C.ar    1  UNL1       -0.0247
     23  C17       -7.7980    0.5660   -0.1700 C.ar    1  UNL1        0.1235
     24  F1        -9.1530    0.6970   -0.1580 F       1  UNL1       -0.2055
     25  C18       -7.0220    1.3490    0.6540 C.ar    1  UNL1       -0.0247
     26  C19       -5.6470    1.2350    0.6600 C.ar    1  UNL1       -0.0379
     27  C20       -2.9750   -0.7830   -0.9820 C.3     1  UNL1        0.0280
     28  C21       -1.5460   -1.1050   -0.7230 C.3     1  UNL1        0.0304
     29 H           1.0450   -1.9963   -0.7988 H       1  UNL1        0.0362
     30 H           0.4743   -2.5903    0.7691 H       1  UNL1        0.0362
     31 H           2.7979   -2.9566    0.5248 H       1  UNL1        0.0348
     32 H           2.4264   -1.7447    1.7903 H       1  UNL1        0.0348
     33 H           7.1656   -1.0127    1.4192 H       1  UNL1        0.0639
     34 H           8.9126    0.4165    0.6197 H       1  UNL1        0.0618
     35 H           8.3931    2.0198   -1.1190 H       1  UNL1        0.0618
     36 H           6.1793    2.1775   -2.0192 H       1  UNL1        0.0626
     37 H           2.2319   -0.0642   -1.1720 H       1  UNL1        0.1700
     38 H          -1.1871    1.8191   -0.4102 H       1  UNL1        0.0480
     39 H          -0.8486    1.4989    1.2942 H       1  UNL1        0.0480
     40 H          -3.2276    2.1078    0.5879 H       1  UNL1        0.0479
     41 H          -2.9441    0.7740    1.7199 H       1  UNL1        0.0479
     42 H          -5.3374   -1.1270   -1.5996 H       1  UNL1        0.0637
     43 H          -7.7202   -0.9417   -1.6221 H       1  UNL1        0.0647
     44 H          -7.4766    2.0335    1.2784 H       1  UNL1        0.0647
     45 H          -5.0959    1.8382    1.2905 H       1  UNL1        0.0637
     46 H          -3.0563   -0.4487   -1.9952 H       1  UNL1        0.0479
     47 H          -3.5150   -1.6825   -0.7716 H       1  UNL1        0.0479
     48 H          -1.5061   -2.0504   -0.2234 H       1  UNL1        0.0480
     49 H          -1.0657   -1.1027   -1.6792 H       1  UNL1        0.0480
@<TRIPOS>BOND
     1     1     2    2
     2     2     3    1
     3     2    16   am
     4     3     4    1
     5     4     5    1
     6     5     6   ar
     7     5    15   ar
     8     6     7   ar
     9     7     8   ar
    10     7    12   ar
    11     8     9   ar
    12     9    10   ar
    13    10    11   ar
    14    11    12   ar
    15    12    13   ar
    16    13    14    2
    17    13    15   ar
    18    16    17    1
    19    16    28    1
    20    17    18    1
    21    18    19    1
    22    19    20    1
    23    19    27    1
    24    20    21   ar
    25    20    26   ar
    26    21    22   ar
    27    22    23   ar
    28    23    24    1
    29    23    25   ar
    30    25    26   ar
    31    27    28    1
    32     3    29    1
    33     3    30    1
    34     4    31    1
    35     4    32    1
    36     8    33    1
    37     9    34    1
    38    10    35    1
    39    11    36    1
    40    15    37    1
    41    17    38    1
    42    17    39    1
    43    18    40    1
    44    18    41    1
    45    21    42    1
    46    22    43    1
    47    25    44    1
    48    26    45    1
    49    27    46    1
    50    27    47    1
    51    28    48    1
    52    28    49    1
