@<TRIPOS>MOLECULE
../data/bude_mols_rdkit_confs2/molecule_56.pdb
 34 36 0 0 0
SMALL
GASTEIGER

@<TRIPOS>ATOM
      1  C1        -5.6050    0.1420   -1.9720 C.2     1  UNL1       -0.0951
      2  C2        -4.8270    0.3310   -0.9410 C.2     1  UNL1       -0.0214
      3  C3        -3.4850   -0.2370   -0.9470 C.2     1  UNL1        0.1870
      4  O1        -3.1050   -0.9070   -1.9660 O.2     1  UNL1       -0.2872
      5  C4        -2.5530   -0.0800    0.1500 C.ar    1  UNL1        0.0407
      6  C5        -2.8950    0.6300    1.2800 C.ar    1  UNL1       -0.0088
      7  C6        -1.9510    0.7400    2.2920 C.ar    1  UNL1        0.1882
      8  F1        -2.2770    1.4360    3.4090 F       1  UNL1       -0.1998
      9  C7        -0.7070    0.1430    2.1470 C.ar    1  UNL1        0.2870
     10  O2         0.1380    0.2470    3.0640 O.2     1  UNL1       -0.2645
     11  N1        -0.3800   -0.5570    1.0230 N.ar    1  UNL1       -0.3078
     12  C8         0.9250   -1.1620    0.9110 C.3     1  UNL1        0.0519
     13  C9         1.9140   -0.2600    0.2980 C.ar    1  UNL1       -0.0170
     14  C10        1.5180    0.9960   -0.0850 C.ar    1  UNL1       -0.0561
     15  C11        2.4400    1.8400   -0.6580 C.ar    1  UNL1       -0.0594
     16  C12        3.7330    1.4100   -0.8350 C.ar    1  UNL1       -0.0363
     17  C13        4.1310    0.1390   -0.4470 C.ar    1  UNL1        0.0660
     18  N2         5.2750   -0.5410   -0.4870 N.ar    1  UNL1       -0.2770
     19  N3         5.1320   -1.7430    0.0180 N.ar    1  UNL1       -0.1812
     20  C14        3.8700   -1.8860    0.4100 C.ar    1  UNL1        0.0572
     21  C15        3.2000   -0.7000    0.1270 C.ar    1  UNL1        0.0243
     22  C16       -1.3080   -0.6510    0.0550 C.ar    1  UNL1        0.0193
     23 H          -6.5574    0.5393   -1.9794 H       1  UNL1        0.0536
     24 H          -5.2676   -0.4047   -2.7797 H       1  UNL1        0.0536
     25 H          -5.1587    0.8768   -0.1304 H       1  UNL1        0.0650
     26 H          -3.8254    1.0671    1.3715 H       1  UNL1        0.0655
     27 H           0.8443   -2.0428    0.3088 H       1  UNL1        0.0542
     28 H           1.2631   -1.3911    1.9000 H       1  UNL1        0.0542
     29 H           0.5427    1.3030    0.0548 H       1  UNL1        0.0621
     30 H           2.1629    2.7894   -0.9529 H       1  UNL1        0.0618
     31 H           4.4224    2.0459   -1.2656 H       1  UNL1        0.0639
     32 H           6.1194   -0.1872   -0.8490 H       1  UNL1        0.1889
     33 H           3.4603   -2.7267    0.8464 H       1  UNL1        0.0854
     34 H          -1.0733   -1.1778   -0.8008 H       1  UNL1        0.0817
@<TRIPOS>BOND
     1     1     2    2
     2     2     3    1
     3     3     4    2
     4     3     5    1
     5     5     6   ar
     6     5    22   ar
     7     6     7   ar
     8     7     8    1
     9     7     9   ar
    10     9    10    2
    11     9    11   ar
    12    11    12    1
    13    11    22   ar
    14    12    13    1
    15    13    14   ar
    16    13    21   ar
    17    14    15   ar
    18    15    16   ar
    19    16    17   ar
    20    17    18   ar
    21    17    21   ar
    22    18    19   ar
    23    19    20   ar
    24    20    21   ar
    25     1    23    1
    26     1    24    1
    27     2    25    1
    28     6    26    1
    29    12    27    1
    30    12    28    1
    31    14    29    1
    32    15    30    1
    33    16    31    1
    34    18    32    1
    35    20    33    1
    36    22    34    1
@<TRIPOS>MOLECULE
../data/bude_mols_rdkit_confs2/molecule_56.pdb
 34 36 0 0 0
SMALL
GASTEIGER

@<TRIPOS>ATOM
      1  C1         4.6540    2.5980   -0.0420 C.2     1  UNL1       -0.0951
      2  C2         3.6350    1.7620    0.2170 C.2     1  UNL1       -0.0214
      3  C3         3.5660    0.4880   -0.4820 C.2     1  UNL1        0.1870
      4  O1         4.4720    0.2130   -1.3040 O.2     1  UNL1       -0.2872
      5  C4         2.5040   -0.4900   -0.2870 C.ar    1  UNL1        0.0407
      6  C5         2.5170   -1.6990   -0.9790 C.ar    1  UNL1       -0.0088
      7  C6         1.5370   -2.6160   -0.8200 C.ar    1  UNL1        0.1882
      8  F1         1.5420   -3.7770   -1.4800 F       1  UNL1       -0.1998
      9  C7         0.4840   -2.3530    0.0560 C.ar    1  UNL1        0.2870
     10  O2        -0.4170   -3.2180    0.1970 O.2     1  UNL1       -0.2645
     11  N1         0.4650   -1.1990    0.7200 N.ar    1  UNL1       -0.3078
     12  C8        -0.6010   -0.7660    1.6350 C.3     1  UNL1        0.0519
     13  C9        -1.6290    0.0570    0.9800 C.ar    1  UNL1       -0.0170
     14  C10       -1.4240    1.4450    0.9090 C.ar    1  UNL1       -0.0561
     15  C11       -2.3090    2.2480    0.2250 C.ar    1  UNL1       -0.0594
     16  C12       -3.4080    1.7130   -0.3990 C.ar    1  UNL1       -0.0363
     17  C13       -3.6230    0.3440   -0.3340 C.ar    1  UNL1        0.0660
     18  N2        -4.6440   -0.4220   -0.8420 N.ar    1  UNL1       -0.2770
     19  N3        -4.4030   -1.6680   -0.4820 N.ar    1  UNL1       -0.1812
     20  C14       -3.2700   -1.7270    0.2350 C.ar    1  UNL1        0.0572
     21  C15       -2.7360   -0.4550    0.3510 C.ar    1  UNL1        0.0243
     22  C16        1.4580   -0.2740    0.5580 C.ar    1  UNL1        0.0193
     23 H           4.7146    3.5047    0.4470 H       1  UNL1        0.0536
     24 H           5.3763    2.3335   -0.7300 H       1  UNL1        0.0536
     25 H           2.9095    2.0205    0.9039 H       1  UNL1        0.0650
     26 H           3.2935   -1.8992   -1.6286 H       1  UNL1        0.0655
     27 H          -0.1598   -0.1941    2.4245 H       1  UNL1        0.0542
     28 H          -1.0848   -1.6482    1.9991 H       1  UNL1        0.0542
     29 H          -0.6039    1.8659    1.3730 H       1  UNL1        0.0621
     30 H          -2.1437    3.2657    0.1810 H       1  UNL1        0.0618
     31 H          -4.0663    2.3215   -0.9102 H       1  UNL1        0.0639
     32 H          -5.4089   -0.1023   -1.3730 H       1  UNL1        0.1889
     33 H          -2.8613   -2.5853    0.6366 H       1  UNL1        0.0854
     34 H           1.4141    0.6098    1.0890 H       1  UNL1        0.0817
@<TRIPOS>BOND
     1     1     2    2
     2     2     3    1
     3     3     4    2
     4     3     5    1
     5     5     6   ar
     6     5    22   ar
     7     6     7   ar
     8     7     8    1
     9     7     9   ar
    10     9    10    2
    11     9    11   ar
    12    11    12    1
    13    11    22   ar
    14    12    13    1
    15    13    14   ar
    16    13    21   ar
    17    14    15   ar
    18    15    16   ar
    19    16    17   ar
    20    17    18   ar
    21    17    21   ar
    22    18    19   ar
    23    19    20   ar
    24    20    21   ar
    25     1    23    1
    26     1    24    1
    27     2    25    1
    28     6    26    1
    29    12    27    1
    30    12    28    1
    31    14    29    1
    32    15    30    1
    33    16    31    1
    34    18    32    1
    35    20    33    1
    36    22    34    1
@<TRIPOS>MOLECULE
../data/bude_mols_rdkit_confs2/molecule_56.pdb
 34 36 0 0 0
SMALL
GASTEIGER

@<TRIPOS>ATOM
      1  C1         4.9180    1.5100    1.5600 C.2     1  UNL1       -0.0951
      2  C2         3.7460    0.9440    1.4100 C.2     1  UNL1       -0.0214
      3  C3         3.6650   -0.4290    0.9430 C.2     1  UNL1        0.1870
      4  O1         4.7370   -1.0440    0.6930 O.2     1  UNL1       -0.2872
      5  C4         2.4170   -1.1490    0.7440 C.ar    1  UNL1        0.0407
      6  C5         2.4210   -2.4520    0.2970 C.ar    1  UNL1       -0.0088
      7  C6         1.2220   -3.1010    0.1200 C.ar    1  UNL1        0.1882
      8  F1         1.2230   -4.3980   -0.3240 F       1  UNL1       -0.1998
      9  C7         0.0430   -2.4390    0.3900 C.ar    1  UNL1        0.2870
     10  O2        -1.0250   -3.0780    0.2110 O.2     1  UNL1       -0.2645
     11  N1         0.0090   -1.1700    0.8260 N.ar    1  UNL1       -0.3078
     12  C8        -1.2270   -0.4880    1.1050 C.3     1  UNL1        0.0519
     13  C9        -1.7070    0.2070   -0.1350 C.ar    1  UNL1       -0.0170
     14  C10       -0.9950    0.1410   -1.3140 C.ar    1  UNL1       -0.0561
     15  C11       -1.4130    0.7710   -2.4730 C.ar    1  UNL1       -0.0594
     16  C12       -2.5900    1.4900   -2.4320 C.ar    1  UNL1       -0.0363
     17  C13       -3.3140    1.5660   -1.2590 C.ar    1  UNL1        0.0660
     18  N2        -4.4580    2.1760   -0.9370 N.ar    1  UNL1       -0.2770
     19  N3        -4.7360    1.9420    0.3350 N.ar    1  UNL1       -0.1812
     20  C14       -3.7920    1.1750    0.8970 C.ar    1  UNL1        0.0572
     21  C15       -2.8750    0.9250   -0.1040 C.ar    1  UNL1        0.0243
     22  C16        1.2070   -0.5520    0.9930 C.ar    1  UNL1        0.0193
     23 H           4.9814    2.4853    1.8915 H       1  UNL1        0.0536
     24 H           5.7778    0.9806    1.3467 H       1  UNL1        0.0536
     25 H           2.8846    1.4711    1.6226 H       1  UNL1        0.0650
     26 H           3.3114   -2.9342    0.0978 H       1  UNL1        0.0655
     27 H          -1.0692    0.2332    1.8795 H       1  UNL1        0.0542
     28 H          -1.9618   -1.1981    1.4224 H       1  UNL1        0.0542
     29 H          -0.1160   -0.3994   -1.3328 H       1  UNL1        0.0621
     30 H          -0.8608    0.7050   -3.3423 H       1  UNL1        0.0618
     31 H          -2.9295    1.9715   -3.2793 H       1  UNL1        0.0639
     32 H          -5.0080    2.7152   -1.5502 H       1  UNL1        0.1889
     33 H          -3.7577    0.8413    1.8730 H       1  UNL1        0.0854
     34 H           1.2071    0.4245    1.3270 H       1  UNL1        0.0817
@<TRIPOS>BOND
     1     1     2    2
     2     2     3    1
     3     3     4    2
     4     3     5    1
     5     5     6   ar
     6     5    22   ar
     7     6     7   ar
     8     7     8    1
     9     7     9   ar
    10     9    10    2
    11     9    11   ar
    12    11    12    1
    13    11    22   ar
    14    12    13    1
    15    13    14   ar
    16    13    21   ar
    17    14    15   ar
    18    15    16   ar
    19    16    17   ar
    20    17    18   ar
    21    17    21   ar
    22    18    19   ar
    23    19    20   ar
    24    20    21   ar
    25     1    23    1
    26     1    24    1
    27     2    25    1
    28     6    26    1
    29    12    27    1
    30    12    28    1
    31    14    29    1
    32    15    30    1
    33    16    31    1
    34    18    32    1
    35    20    33    1
    36    22    34    1
@<TRIPOS>MOLECULE
../data/bude_mols_rdkit_confs2/molecule_56.pdb
 34 36 0 0 0
SMALL
GASTEIGER

@<TRIPOS>ATOM
      1  C1         5.7790   -1.3320   -0.5940 C.2     1  UNL1       -0.0951
      2  C2         4.8330   -0.4190   -0.3890 C.2     1  UNL1       -0.0214
      3  C3         3.5310   -0.7930    0.0920 C.2     1  UNL1        0.1870
      4  O1         3.3190   -2.0320    0.3100 O.2     1  UNL1       -0.2872
      5  C4         2.4560    0.1560    0.3380 C.ar    1  UNL1        0.0407
      6  C5         2.6450    1.5040    0.1280 C.ar    1  UNL1       -0.0088
      7  C6         1.5910    2.3250    0.3860 C.ar    1  UNL1        0.1882
      8  F1         1.7380    3.6650    0.1910 F       1  UNL1       -0.1998
      9  C7         0.3740    1.8040    0.8440 C.ar    1  UNL1        0.2870
     10  O2        -0.5300    2.6220    1.0560 O.2     1  UNL1       -0.2645
     11  N1         0.1730    0.5020    1.0540 N.ar    1  UNL1       -0.3078
     12  C8        -1.0430   -0.1080    1.5220 C.3     1  UNL1        0.0519
     13  C9        -1.9830   -0.5990    0.5430 C.ar    1  UNL1       -0.0170
     14  C10       -1.8510   -1.9320    0.1020 C.ar    1  UNL1       -0.0561
     15  C11       -2.6620   -2.4690   -0.8640 C.ar    1  UNL1       -0.0594
     16  C12       -3.6400   -1.6910   -1.4270 C.ar    1  UNL1       -0.0363
     17  C13       -3.8080   -0.3790   -1.0280 C.ar    1  UNL1        0.0660
     18  N2        -4.6930    0.5420   -1.4160 N.ar    1  UNL1       -0.2770
     19  N3        -4.4560    1.6210   -0.7210 N.ar    1  UNL1       -0.1812
     20  C14       -3.4300    1.4460    0.1260 C.ar    1  UNL1        0.0572
     21  C15       -2.9650    0.1380   -0.0390 C.ar    1  UNL1        0.0243
     22  C16        1.2410   -0.3190    0.7910 C.ar    1  UNL1        0.0193
     23 H           6.7078   -1.0441   -0.9397 H       1  UNL1        0.0536
     24 H           5.5839   -2.3281   -0.4073 H       1  UNL1        0.0536
     25 H           5.0375    0.5746   -0.5786 H       1  UNL1        0.0650
     26 H           3.5466    1.8752   -0.2102 H       1  UNL1        0.0655
     27 H          -1.5550    0.6206    2.1152 H       1  UNL1        0.0542
     28 H          -0.7161   -0.9865    2.0380 H       1  UNL1        0.0542
     29 H          -1.1175   -2.5245    0.5216 H       1  UNL1        0.0621
     30 H          -2.5375   -3.4485   -1.1641 H       1  UNL1        0.0618
     31 H          -4.2553   -2.0881   -2.1542 H       1  UNL1        0.0639
     32 H          -5.3933    0.4286   -2.0986 H       1  UNL1        0.1889
     33 H          -3.0527    2.1492    0.7803 H       1  UNL1        0.0854
     34 H           1.1314   -1.3346    0.9380 H       1  UNL1        0.0817
@<TRIPOS>BOND
     1     1     2    2
     2     2     3    1
     3     3     4    2
     4     3     5    1
     5     5     6   ar
     6     5    22   ar
     7     6     7   ar
     8     7     8    1
     9     7     9   ar
    10     9    10    2
    11     9    11   ar
    12    11    12    1
    13    11    22   ar
    14    12    13    1
    15    13    14   ar
    16    13    21   ar
    17    14    15   ar
    18    15    16   ar
    19    16    17   ar
    20    17    18   ar
    21    17    21   ar
    22    18    19   ar
    23    19    20   ar
    24    20    21   ar
    25     1    23    1
    26     1    24    1
    27     2    25    1
    28     6    26    1
    29    12    27    1
    30    12    28    1
    31    14    29    1
    32    15    30    1
    33    16    31    1
    34    18    32    1
    35    20    33    1
    36    22    34    1
@<TRIPOS>MOLECULE
../data/bude_mols_rdkit_confs2/molecule_56.pdb
 34 36 0 0 0
SMALL
GASTEIGER

@<TRIPOS>ATOM
      1  C1         5.7290   -0.7840    1.1990 C.2     1  UNL1       -0.0951
      2  C2         4.7340   -0.0330    0.7740 C.2     1  UNL1       -0.0214
      3  C3         3.5170   -0.6260    0.2960 C.2     1  UNL1        0.1870
      4  O1         3.3820   -1.8800    0.2730 O.2     1  UNL1       -0.2872
      5  C4         2.4170    0.2120   -0.1720 C.ar    1  UNL1        0.0407
      6  C5         2.4340    1.5910   -0.1630 C.ar    1  UNL1       -0.0088
      7  C6         1.3710    2.3310   -0.6240 C.ar    1  UNL1        0.1882
      8  F1         1.4050    3.6830   -0.6080 F       1  UNL1       -0.1998
      9  C7         0.2560    1.6350   -1.1110 C.ar    1  UNL1        0.2870
     10  O2        -0.6760    2.3300   -1.5180 O.2     1  UNL1       -0.2645
     11  N1         0.1910    0.3220   -1.1400 N.ar    1  UNL1       -0.3078
     12  C8        -0.8970   -0.5110   -1.6100 C.3     1  UNL1        0.0519
     13  C9        -1.8540   -0.9260   -0.5790 C.ar    1  UNL1       -0.0170
     14  C10       -1.5870   -2.0750    0.1400 C.ar    1  UNL1       -0.0561
     15  C11       -2.4290   -2.4590    1.1700 C.ar    1  UNL1       -0.0594
     16  C12       -3.5330   -1.6930    1.4780 C.ar    1  UNL1       -0.0363
     17  C13       -3.8130   -0.5450    0.7690 C.ar    1  UNL1        0.0660
     18  N2        -4.8130    0.3450    0.8480 N.ar    1  UNL1       -0.2770
     19  N3        -4.6250    1.2370   -0.0750 N.ar    1  UNL1       -0.1812
     20  C14       -3.5230    0.9910   -0.7910 C.ar    1  UNL1        0.0572
     21  C15       -2.9570   -0.1700   -0.2680 C.ar    1  UNL1        0.0243
     22  C16        1.2670   -0.3730   -0.6730 C.ar    1  UNL1        0.0193
     23 H           6.5982   -0.3444    1.5400 H       1  UNL1        0.0536
     24 H           5.6394   -1.8121    1.1911 H       1  UNL1        0.0536
     25 H           4.8303    0.9944    0.7847 H       1  UNL1        0.0650
     26 H           3.2670    2.0806    0.1995 H       1  UNL1        0.0655
     27 H          -0.4751   -1.3930   -2.0447 H       1  UNL1        0.0542
     28 H          -1.4492    0.0853   -2.3060 H       1  UNL1        0.0542
     29 H          -0.7598   -2.6473   -0.0906 H       1  UNL1        0.0621
     30 H          -2.2303   -3.3178    1.7066 H       1  UNL1        0.0618
     31 H          -4.1565   -1.9824    2.2478 H       1  UNL1        0.0639
     32 H          -5.5574    0.3250    1.4919 H       1  UNL1        0.1889
     33 H          -3.1617    1.5521   -1.5782 H       1  UNL1        0.0854
     34 H           1.2209   -1.4037   -0.6945 H       1  UNL1        0.0817
@<TRIPOS>BOND
     1     1     2    2
     2     2     3    1
     3     3     4    2
     4     3     5    1
     5     5     6   ar
     6     5    22   ar
     7     6     7   ar
     8     7     8    1
     9     7     9   ar
    10     9    10    2
    11     9    11   ar
    12    11    12    1
    13    11    22   ar
    14    12    13    1
    15    13    14   ar
    16    13    21   ar
    17    14    15   ar
    18    15    16   ar
    19    16    17   ar
    20    17    18   ar
    21    17    21   ar
    22    18    19   ar
    23    19    20   ar
    24    20    21   ar
    25     1    23    1
    26     1    24    1
    27     2    25    1
    28     6    26    1
    29    12    27    1
    30    12    28    1
    31    14    29    1
    32    15    30    1
    33    16    31    1
    34    18    32    1
    35    20    33    1
    36    22    34    1
@<TRIPOS>MOLECULE
../data/bude_mols_rdkit_confs2/molecule_56.pdb
 34 36 0 0 0
SMALL
GASTEIGER

@<TRIPOS>ATOM
      1  C1         5.9820    0.7430   -0.2200 C.2     1  UNL1       -0.0951
      2  C2         4.8880    0.3590    0.2920 C.2     1  UNL1       -0.0214
      3  C3         3.7160    0.1160   -0.5520 C.2     1  UNL1        0.1870
      4  O1         3.7590    0.4070   -1.7760 O.2     1  UNL1       -0.2872
      5  C4         2.4770   -0.4660   -0.0370 C.ar    1  UNL1        0.0407
      6  C5         2.4930   -1.0400    1.2220 C.ar    1  UNL1       -0.0088
      7  C6         1.3190   -1.6270    1.6870 C.ar    1  UNL1        0.1882
      8  F1         1.2720   -2.2070    2.9060 F       1  UNL1       -0.1998
      9  C7         0.1770   -1.6180    0.8780 C.ar    1  UNL1        0.2870
     10  O2        -0.8410   -2.1660    1.3580 O.2     1  UNL1       -0.2645
     11  N1         0.1480   -1.0730   -0.3160 N.ar    1  UNL1       -0.3078
     12  C8        -0.9690   -1.0450   -1.1980 C.3     1  UNL1        0.0519
     13  C9        -1.9400    0.0490   -0.9400 C.ar    1  UNL1       -0.0170
     14  C10       -1.7020    1.3370   -1.3760 C.ar    1  UNL1       -0.0561
     15  C11       -2.5240    2.4070   -1.0510 C.ar    1  UNL1       -0.0594
     16  C12       -3.6220    2.2240   -0.2770 C.ar    1  UNL1       -0.0363
     17  C13       -3.9060    0.9380    0.1830 C.ar    1  UNL1        0.0660
     18  N2        -4.9350    0.4710    0.9180 N.ar    1  UNL1       -0.2770
     19  N3        -4.7730   -0.8340    1.0490 N.ar    1  UNL1       -0.1812
     20  C14       -3.6450   -1.2200    0.4040 C.ar    1  UNL1        0.0572
     21  C15       -3.0640   -0.1040   -0.1590 C.ar    1  UNL1        0.0243
     22  C16        1.3200   -0.4990   -0.7580 C.ar    1  UNL1        0.0193
     23 H           6.8026    0.9117    0.3826 H       1  UNL1        0.0536
     24 H           6.0522    0.8869   -1.2395 H       1  UNL1        0.0536
     25 H           4.8225    0.2164    1.3120 H       1  UNL1        0.0650
     26 H           3.3488   -1.0333    1.7987 H       1  UNL1        0.0655
     27 H          -1.4867   -1.9772   -1.1090 H       1  UNL1        0.0542
     28 H          -0.5746   -0.8725   -2.1776 H       1  UNL1        0.0542
     29 H          -0.8763    1.5120   -1.9699 H       1  UNL1        0.0621
     30 H          -2.2973    3.3507   -1.4018 H       1  UNL1        0.0618
     31 H          -4.2341    3.0184   -0.0336 H       1  UNL1        0.0639
     32 H          -5.6735    1.0054    1.2899 H       1  UNL1        0.1889
     33 H          -3.2830   -2.1846    0.3446 H       1  UNL1        0.0854
     34 H           1.3224   -0.0662   -1.6949 H       1  UNL1        0.0817
@<TRIPOS>BOND
     1     1     2    2
     2     2     3    1
     3     3     4    2
     4     3     5    1
     5     5     6   ar
     6     5    22   ar
     7     6     7   ar
     8     7     8    1
     9     7     9   ar
    10     9    10    2
    11     9    11   ar
    12    11    12    1
    13    11    22   ar
    14    12    13    1
    15    13    14   ar
    16    13    21   ar
    17    14    15   ar
    18    15    16   ar
    19    16    17   ar
    20    17    18   ar
    21    17    21   ar
    22    18    19   ar
    23    19    20   ar
    24    20    21   ar
    25     1    23    1
    26     1    24    1
    27     2    25    1
    28     6    26    1
    29    12    27    1
    30    12    28    1
    31    14    29    1
    32    15    30    1
    33    16    31    1
    34    18    32    1
    35    20    33    1
    36    22    34    1
@<TRIPOS>MOLECULE
../data/bude_mols_rdkit_confs2/molecule_56.pdb
 34 36 0 0 0
SMALL
GASTEIGER

@<TRIPOS>ATOM
      1  C1         4.7210   -2.1080   -1.3860 C.2     1  UNL1       -0.0951
      2  C2         3.7250   -1.4380   -0.8340 C.2     1  UNL1       -0.0214
      3  C3         3.7190    0.0090   -0.9290 C.2     1  UNL1        0.1870
      4  O1         4.6410    0.6080   -1.5220 O.2     1  UNL1       -0.2872
      5  C4         2.6410    0.8100   -0.3380 C.ar    1  UNL1        0.0407
      6  C5         2.6790    2.2030   -0.4560 C.ar    1  UNL1       -0.0088
      7  C6         1.6420    2.9070    0.1180 C.ar    1  UNL1        0.1882
      8  F1         1.6410    4.2570    0.0270 F       1  UNL1       -0.1998
      9  C7         0.6080    2.3120    0.7770 C.ar    1  UNL1        0.2870
     10  O2        -0.3310    2.9770    1.2950 O.2     1  UNL1       -0.2645
     11  N1         0.5750    0.9720    0.8880 N.ar    1  UNL1       -0.3078
     12  C8        -0.5120    0.3030    1.5850 C.3     1  UNL1        0.0519
     13  C9        -1.6260   -0.0280    0.6650 C.ar    1  UNL1       -0.0170
     14  C10       -1.6120    0.2710   -0.6790 C.ar    1  UNL1       -0.0561
     15  C11       -2.6440   -0.0340   -1.5350 C.ar    1  UNL1       -0.0594
     16  C12       -3.7580   -0.6740   -1.0330 C.ar    1  UNL1       -0.0363
     17  C13       -3.8140   -0.9910    0.3060 C.ar    1  UNL1        0.0660
     18  N2        -4.7810   -1.6050    1.0120 N.ar    1  UNL1       -0.2770
     19  N3        -4.3400   -1.6650    2.2560 N.ar    1  UNL1       -0.1812
     20  C14       -3.1380   -1.1210    2.3880 C.ar    1  UNL1        0.0572
     21  C15       -2.7430   -0.6640    1.1450 C.ar    1  UNL1        0.0243
     22  C16        1.5750    0.2620    0.3380 C.ar    1  UNL1        0.0193
     23 H           4.7438   -3.1382   -1.3295 H       1  UNL1        0.0536
     24 H           5.4762   -1.6011   -1.8737 H       1  UNL1        0.0536
     25 H           2.9650   -1.9354   -0.3441 H       1  UNL1        0.0650
     26 H           3.4481    2.6820   -0.9501 H       1  UNL1        0.0655
     27 H          -0.8784    0.9471    2.3569 H       1  UNL1        0.0542
     28 H          -0.1348   -0.6096    1.9970 H       1  UNL1        0.0542
     29 H          -0.7828    0.7495   -1.0644 H       1  UNL1        0.0621
     30 H          -2.5861    0.2117   -2.5357 H       1  UNL1        0.0618
     31 H          -4.5444   -0.9137   -1.6568 H       1  UNL1        0.0639
     32 H          -5.6414   -1.9409    0.6712 H       1  UNL1        0.1889
     33 H          -2.5946   -1.0513    3.2626 H       1  UNL1        0.0854
     34 H           1.5410   -0.7654    0.4290 H       1  UNL1        0.0817
@<TRIPOS>BOND
     1     1     2    2
     2     2     3    1
     3     3     4    2
     4     3     5    1
     5     5     6   ar
     6     5    22   ar
     7     6     7   ar
     8     7     8    1
     9     7     9   ar
    10     9    10    2
    11     9    11   ar
    12    11    12    1
    13    11    22   ar
    14    12    13    1
    15    13    14   ar
    16    13    21   ar
    17    14    15   ar
    18    15    16   ar
    19    16    17   ar
    20    17    18   ar
    21    17    21   ar
    22    18    19   ar
    23    19    20   ar
    24    20    21   ar
    25     1    23    1
    26     1    24    1
    27     2    25    1
    28     6    26    1
    29    12    27    1
    30    12    28    1
    31    14    29    1
    32    15    30    1
    33    16    31    1
    34    18    32    1
    35    20    33    1
    36    22    34    1
@<TRIPOS>MOLECULE
../data/bude_mols_rdkit_confs2/molecule_56.pdb
 34 36 0 0 0
SMALL
GASTEIGER

@<TRIPOS>ATOM
      1  C1         5.4620   -0.5680    1.2550 C.2     1  UNL1       -0.0951
      2  C2         4.5150   -1.4420    1.1540 C.2     1  UNL1       -0.0214
      3  C3         3.1080   -1.3690    1.1190 C.2     1  UNL1        0.1870
      4  O1         2.5230   -2.5400    1.0200 O.2     1  UNL1       -0.2872
      5  C4         2.1920   -0.2670    1.1690 C.ar    1  UNL1        0.0407
      6  C5         2.5050    1.0730    1.2200 C.ar    1  UNL1       -0.0088
      7  C6         1.5360    2.0670    1.2820 C.ar    1  UNL1        0.1882
      8  F1         1.9570    3.3610    1.3330 F       1  UNL1       -0.1998
      9  C7         0.2170    1.7070    1.2920 C.ar    1  UNL1        0.2870
     10  O2        -0.6050    2.6510    1.3530 O.2     1  UNL1       -0.2645
     11  N1        -0.1410    0.4500    1.2440 N.ar    1  UNL1       -0.3078
     12  C8        -1.5080    0.0120    1.2040 C.3     1  UNL1        0.0519
     13  C9        -2.0870   -0.2980   -0.0850 C.ar    1  UNL1       -0.0170
     14  C10       -1.9860   -1.6280   -0.5620 C.ar    1  UNL1       -0.0561
     15  C11       -2.4480   -1.9750   -1.8070 C.ar    1  UNL1       -0.0594
     16  C12       -3.0290   -1.0420   -2.6430 C.ar    1  UNL1       -0.0363
     17  C13       -3.1340    0.2470   -2.1910 C.ar    1  UNL1        0.0660
     18  N2        -3.6700    1.3160   -2.7920 N.ar    1  UNL1       -0.2770
     19  N3        -3.5670    2.3270   -1.9680 N.ar    1  UNL1       -0.1812
     20  C14       -2.9610    1.9350   -0.8170 C.ar    1  UNL1        0.0572
     21  C15       -2.6660    0.6050   -0.9250 C.ar    1  UNL1        0.0243
     22  C16        0.8000   -0.5060    1.1850 C.ar    1  UNL1        0.0193
     23 H           6.4478   -0.8733    1.2582 H       1  UNL1        0.0536
     24 H           5.2323    0.4351    1.3324 H       1  UNL1        0.0536
     25 H           4.8681   -2.4091    1.0832 H       1  UNL1        0.0650
     26 H           3.4991    1.3501    1.2118 H       1  UNL1        0.0655
     27 H          -2.1027    0.7866    1.6414 H       1  UNL1        0.0542
     28 H          -1.5033   -0.9224    1.7252 H       1  UNL1        0.0542
     29 H          -1.5569   -2.3497    0.0380 H       1  UNL1        0.0621
     30 H          -2.3594   -2.9529   -2.1247 H       1  UNL1        0.0618
     31 H          -3.3733   -1.3074   -3.5790 H       1  UNL1        0.0639
     32 H          -4.0695    1.3377   -3.6915 H       1  UNL1        0.1889
     33 H          -2.7588    2.5366   -0.0032 H       1  UNL1        0.0854
     34 H           0.4829   -1.4874    1.1487 H       1  UNL1        0.0817
@<TRIPOS>BOND
     1     1     2    2
     2     2     3    1
     3     3     4    2
     4     3     5    1
     5     5     6   ar
     6     5    22   ar
     7     6     7   ar
     8     7     8    1
     9     7     9   ar
    10     9    10    2
    11     9    11   ar
    12    11    12    1
    13    11    22   ar
    14    12    13    1
    15    13    14   ar
    16    13    21   ar
    17    14    15   ar
    18    15    16   ar
    19    16    17   ar
    20    17    18   ar
    21    17    21   ar
    22    18    19   ar
    23    19    20   ar
    24    20    21   ar
    25     1    23    1
    26     1    24    1
    27     2    25    1
    28     6    26    1
    29    12    27    1
    30    12    28    1
    31    14    29    1
    32    15    30    1
    33    16    31    1
    34    18    32    1
    35    20    33    1
    36    22    34    1
@<TRIPOS>MOLECULE
../data/bude_mols_rdkit_confs2/molecule_56.pdb
 34 36 0 0 0
SMALL
GASTEIGER

@<TRIPOS>ATOM
      1  C1         5.4340    2.3770    0.9370 C.2     1  UNL1       -0.0951
      2  C2         4.6780    1.3070    0.9940 C.2     1  UNL1       -0.0214
      3  C3         3.4480    1.2370    0.2590 C.2     1  UNL1        0.1870
      4  O1         3.1100    2.2360   -0.4470 O.2     1  UNL1       -0.2872
      5  C4         2.5780    0.0930    0.2810 C.ar    1  UNL1        0.0407
      6  C5         2.8650   -1.0250    1.0150 C.ar    1  UNL1       -0.0088
      7  C6         2.0070   -2.1080    1.0150 C.ar    1  UNL1        0.1882
      8  F1         2.3030   -3.2110    1.7470 F       1  UNL1       -0.1998
      9  C7         0.8530   -2.0510    0.2650 C.ar    1  UNL1        0.2870
     10  O2         0.0520   -3.0540    0.2610 O.2     1  UNL1       -0.2645
     11  N1         0.5610   -0.9610   -0.4580 N.ar    1  UNL1       -0.3078
     12  C8        -0.6560   -0.9600   -1.2200 C.3     1  UNL1        0.0519
     13  C9        -1.8110   -0.4350   -0.4670 C.ar    1  UNL1       -0.0170
     14  C10       -1.7590    0.0130    0.8240 C.ar    1  UNL1       -0.0561
     15  C11       -2.8980    0.4940    1.4620 C.ar    1  UNL1       -0.0594
     16  C12       -4.1150    0.5350    0.8140 C.ar    1  UNL1       -0.0363
     17  C13       -4.1550    0.0780   -0.4930 C.ar    1  UNL1        0.0660
     18  N2        -5.1750   -0.0140   -1.3900 N.ar    1  UNL1       -0.2770
     19  N3        -4.7290   -0.5170   -2.5250 N.ar    1  UNL1       -0.1812
     20  C14       -3.4080   -0.7630   -2.3900 C.ar    1  UNL1        0.0572
     21  C15       -3.0290   -0.3940   -1.1140 C.ar    1  UNL1        0.0243
     22  C16        1.3890    0.0910   -0.4610 C.ar    1  UNL1        0.0193
     23 H           6.3165    2.4143    1.4707 H       1  UNL1        0.0536
     24 H           5.1465    3.1817    0.3584 H       1  UNL1        0.0536
     25 H           4.9714    0.5058    1.5745 H       1  UNL1        0.0650
     26 H           3.7314   -1.0599    1.5746 H       1  UNL1        0.0655
     27 H          -0.8720   -1.9648   -1.5176 H       1  UNL1        0.0542
     28 H          -0.5047   -0.3162   -2.0611 H       1  UNL1        0.0542
     29 H          -0.8613   -0.0060    1.3327 H       1  UNL1        0.0621
     30 H          -2.8312    0.8258    2.4369 H       1  UNL1        0.0618
     31 H          -4.9616    0.8918    1.2840 H       1  UNL1        0.0639
     32 H          -6.1063    0.2547   -1.2174 H       1  UNL1        0.1889
     33 H          -2.7888   -1.1583   -3.1148 H       1  UNL1        0.0854
     34 H           1.1457    0.9212   -1.0237 H       1  UNL1        0.0817
@<TRIPOS>BOND
     1     1     2    2
     2     2     3    1
     3     3     4    2
     4     3     5    1
     5     5     6   ar
     6     5    22   ar
     7     6     7   ar
     8     7     8    1
     9     7     9   ar
    10     9    10    2
    11     9    11   ar
    12    11    12    1
    13    11    22   ar
    14    12    13    1
    15    13    14   ar
    16    13    21   ar
    17    14    15   ar
    18    15    16   ar
    19    16    17   ar
    20    17    18   ar
    21    17    21   ar
    22    18    19   ar
    23    19    20   ar
    24    20    21   ar
    25     1    23    1
    26     1    24    1
    27     2    25    1
    28     6    26    1
    29    12    27    1
    30    12    28    1
    31    14    29    1
    32    15    30    1
    33    16    31    1
    34    18    32    1
    35    20    33    1
    36    22    34    1
@<TRIPOS>MOLECULE
../data/bude_mols_rdkit_confs2/molecule_56.pdb
 34 36 0 0 0
SMALL
GASTEIGER

@<TRIPOS>ATOM
      1  C1         5.2810    0.2810    1.7290 C.2     1  UNL1       -0.0951
      2  C2         4.3460   -0.6070    1.8710 C.2     1  UNL1       -0.0214
      3  C3         3.1040   -0.8760    1.2510 C.2     1  UNL1        0.1870
      4  O1         2.4870   -1.9220    1.7520 O.2     1  UNL1       -0.2872
      5  C4         2.3770   -0.2410    0.1840 C.ar    1  UNL1        0.0407
      6  C5         2.7830    0.8700   -0.5060 C.ar    1  UNL1       -0.0088
      7  C6         2.0120    1.4240   -1.5380 C.ar    1  UNL1        0.1882
      8  F1         2.4470    2.5270   -2.2010 F       1  UNL1       -0.1998
      9  C7         0.8090    0.8740   -1.9010 C.ar    1  UNL1        0.2870
     10  O2         0.1280    1.3940   -2.8410 O.2     1  UNL1       -0.2645
     11  N1         0.4020   -0.2180   -1.2270 N.ar    1  UNL1       -0.3078
     12  C8        -0.8750   -0.7810   -1.6530 C.3     1  UNL1        0.0519
     13  C9        -2.0560   -0.2050   -0.9990 C.ar    1  UNL1       -0.0170
     14  C10       -2.7590    0.7900   -1.6700 C.ar    1  UNL1       -0.0561
     15  C11       -3.8480    1.3650   -1.0520 C.ar    1  UNL1       -0.0594
     16  C12       -4.2430    0.9690    0.2070 C.ar    1  UNL1       -0.0363
     17  C13       -3.5690   -0.0170    0.8980 C.ar    1  UNL1        0.0660
     18  N2        -3.7550   -0.5840    2.1000 N.ar    1  UNL1       -0.2770
     19  N3        -2.8150   -1.4990    2.2490 N.ar    1  UNL1       -0.1812
     20  C14       -2.0230   -1.5370    1.1710 C.ar    1  UNL1        0.0572
     21  C15       -2.4650   -0.5970    0.2680 C.ar    1  UNL1        0.0243
     22  C16        1.1350   -0.7510   -0.2430 C.ar    1  UNL1        0.0193
     23 H           6.1169    0.2513    2.3334 H       1  UNL1        0.0536
     24 H           5.1889    1.0171    1.0116 H       1  UNL1        0.0536
     25 H           4.5616   -1.2830    2.6204 H       1  UNL1        0.0650
     26 H           3.6822    1.3123   -0.2594 H       1  UNL1        0.0655
     27 H          -0.8603   -1.8308   -1.4466 H       1  UNL1        0.0542
     28 H          -0.9694   -0.5539   -2.6944 H       1  UNL1        0.0542
     29 H          -2.4702    1.0921   -2.6136 H       1  UNL1        0.0621
     30 H          -4.3766    2.1047   -1.5404 H       1  UNL1        0.0618
     31 H          -5.0621    1.4203    0.6435 H       1  UNL1        0.0639
     32 H          -4.4603   -0.3597    2.7492 H       1  UNL1        0.1889
     33 H          -1.2156   -2.1661    1.0388 H       1  UNL1        0.0854
     34 H           0.7673   -1.5892    0.2337 H       1  UNL1        0.0817
@<TRIPOS>BOND
     1     1     2    2
     2     2     3    1
     3     3     4    2
     4     3     5    1
     5     5     6   ar
     6     5    22   ar
     7     6     7   ar
     8     7     8    1
     9     7     9   ar
    10     9    10    2
    11     9    11   ar
    12    11    12    1
    13    11    22   ar
    14    12    13    1
    15    13    14   ar
    16    13    21   ar
    17    14    15   ar
    18    15    16   ar
    19    16    17   ar
    20    17    18   ar
    21    17    21   ar
    22    18    19   ar
    23    19    20   ar
    24    20    21   ar
    25     1    23    1
    26     1    24    1
    27     2    25    1
    28     6    26    1
    29    12    27    1
    30    12    28    1
    31    14    29    1
    32    15    30    1
    33    16    31    1
    34    18    32    1
    35    20    33    1
    36    22    34    1
@<TRIPOS>MOLECULE
../data/bude_mols_rdkit_confs2/molecule_56.pdb
 34 36 0 0 0
SMALL
GASTEIGER

@<TRIPOS>ATOM
      1  C1         5.2890    1.3780    0.8000 C.2     1  UNL1       -0.0951
      2  C2         4.3660    1.9190    0.0930 C.2     1  UNL1       -0.0214
      3  C3         3.1080    1.4630   -0.3200 C.2     1  UNL1        0.1870
      4  O1         2.4480    2.3380   -1.0600 O.2     1  UNL1       -0.2872
      5  C4         2.3910    0.2280   -0.0980 C.ar    1  UNL1        0.0407
      6  C5         2.8100   -0.8410    0.6500 C.ar    1  UNL1       -0.0088
      7  C6         2.0290   -1.9940    0.7860 C.ar    1  UNL1        0.1882
      8  F1         2.4940   -3.0190    1.5380 F       1  UNL1       -0.1998
      9  C7         0.8100   -2.1040    0.1770 C.ar    1  UNL1        0.2870
     10  O2         0.1060   -3.1640    0.3080 O.2     1  UNL1       -0.2645
     11  N1         0.3760   -1.0590   -0.5670 N.ar    1  UNL1       -0.3078
     12  C8        -0.9070   -1.1650   -1.2370 C.3     1  UNL1        0.0519
     13  C9        -2.0790   -0.7740   -0.4600 C.ar    1  UNL1       -0.0170
     14  C10       -2.8040   -1.8010    0.1680 C.ar    1  UNL1       -0.0561
     15  C11       -3.8900   -1.4660    0.9440 C.ar    1  UNL1       -0.0594
     16  C12       -4.2780   -0.1710    1.1150 C.ar    1  UNL1       -0.0363
     17  C13       -3.5760    0.8600    0.5000 C.ar    1  UNL1        0.0660
     18  N2        -3.7340    2.1900    0.4730 N.ar    1  UNL1       -0.2770
     19  N3        -2.8020    2.7040   -0.2830 N.ar    1  UNL1       -0.1812
     20  C14       -1.9990    1.7320   -0.7780 C.ar    1  UNL1        0.0572
     21  C15       -2.4810    0.5360   -0.2830 C.ar    1  UNL1        0.0243
     22  C16        1.1230    0.0330   -0.6940 C.ar    1  UNL1        0.0193
     23 H           6.1609    1.8952    0.9934 H       1  UNL1        0.0536
     24 H           5.1599    0.4255    1.1755 H       1  UNL1        0.0536
     25 H           4.5935    2.8712   -0.2336 H       1  UNL1        0.0650
     26 H           3.7249   -0.7945    1.1251 H       1  UNL1        0.0655
     27 H          -1.0372   -2.1854   -1.5314 H       1  UNL1        0.0542
     28 H          -0.8610   -0.4715   -2.0506 H       1  UNL1        0.0542
     29 H          -2.5272   -2.7881    0.0495 H       1  UNL1        0.0621
     30 H          -4.4251   -2.2159    1.4091 H       1  UNL1        0.0618
     31 H          -5.0972    0.0458    1.7040 H       1  UNL1        0.0639
     32 H          -4.4354    2.6952    0.9443 H       1  UNL1        0.1889
     33 H          -1.1870    1.8598   -1.4020 H       1  UNL1        0.0854
     34 H           0.7480    0.8000   -1.2738 H       1  UNL1        0.0817
@<TRIPOS>BOND
     1     1     2    2
     2     2     3    1
     3     3     4    2
     4     3     5    1
     5     5     6   ar
     6     5    22   ar
     7     6     7   ar
     8     7     8    1
     9     7     9   ar
    10     9    10    2
    11     9    11   ar
    12    11    12    1
    13    11    22   ar
    14    12    13    1
    15    13    14   ar
    16    13    21   ar
    17    14    15   ar
    18    15    16   ar
    19    16    17   ar
    20    17    18   ar
    21    17    21   ar
    22    18    19   ar
    23    19    20   ar
    24    20    21   ar
    25     1    23    1
    26     1    24    1
    27     2    25    1
    28     6    26    1
    29    12    27    1
    30    12    28    1
    31    14    29    1
    32    15    30    1
    33    16    31    1
    34    18    32    1
    35    20    33    1
    36    22    34    1
@<TRIPOS>MOLECULE
../data/bude_mols_rdkit_confs2/molecule_56.pdb
 34 36 0 0 0
SMALL
GASTEIGER

@<TRIPOS>ATOM
      1  C1         2.8320    0.1620   -3.2280 C.2     1  UNL1       -0.0951
      2  C2         3.6990    0.3860   -2.2790 C.2     1  UNL1       -0.0214
      3  C3         3.6460    0.1070   -0.8910 C.2     1  UNL1        0.1870
      4  O1         4.7700    0.4670   -0.2620 O.2     1  UNL1       -0.2872
      5  C4         2.6360   -0.4750   -0.0500 C.ar    1  UNL1        0.0407
      6  C5         2.9940   -0.7430    1.2900 C.ar    1  UNL1       -0.0088
      7  C6         2.0370   -1.2610    2.1070 C.ar    1  UNL1        0.1882
      8  F1         2.3560   -1.5280    3.3910 F       1  UNL1       -0.1998
      9  C7         0.7450   -1.5380    1.7080 C.ar    1  UNL1        0.2870
     10  O2        -0.0820   -2.0200    2.5190 O.2     1  UNL1       -0.2645
     11  N1         0.4030   -1.2910    0.4640 N.ar    1  UNL1       -0.3078
     12  C8        -0.9170   -1.4830   -0.0970 C.3     1  UNL1        0.0519
     13  C9        -1.7310   -0.2600   -0.1050 C.ar    1  UNL1       -0.0170
     14  C10       -1.6680    0.5890   -1.2210 C.ar    1  UNL1       -0.0561
     15  C11       -2.3200    1.7850   -1.3140 C.ar    1  UNL1       -0.0594
     16  C12       -3.0820    2.1570   -0.2340 C.ar    1  UNL1       -0.0363
     17  C13       -3.1940    1.3750    0.8940 C.ar    1  UNL1        0.0660
     18  N2        -3.8800    1.5080    2.0400 N.ar    1  UNL1       -0.2770
     19  N3        -3.6630    0.4500    2.7890 N.ar    1  UNL1       -0.1812
     20  C14       -2.8400   -0.3930    2.1660 C.ar    1  UNL1        0.0572
     21  C15       -2.5110    0.1650    0.9440 C.ar    1  UNL1        0.0243
     22  C16        1.3430   -0.7660   -0.4000 C.ar    1  UNL1        0.0193
     23 H           3.0466    0.4387   -4.1988 H       1  UNL1        0.0536
     24 H           1.9317   -0.2918   -3.0078 H       1  UNL1        0.0536
     25 H           4.5696    0.8432   -2.5921 H       1  UNL1        0.0650
     26 H           3.9472   -0.5528    1.6369 H       1  UNL1        0.0655
     27 H          -1.4264   -2.2257    0.4808 H       1  UNL1        0.0542
     28 H          -0.7867   -1.7825   -1.1159 H       1  UNL1        0.0542
     29 H          -1.0916    0.2899   -2.0231 H       1  UNL1        0.0621
     30 H          -2.2439    2.3797   -2.1540 H       1  UNL1        0.0618
     31 H          -3.5891    3.0551   -0.2689 H       1  UNL1        0.0639
     32 H          -4.4519    2.2726    2.2801 H       1  UNL1        0.1889
     33 H          -2.5077   -1.2997    2.5301 H       1  UNL1        0.0854
     34 H           1.0533   -0.5805   -1.3730 H       1  UNL1        0.0817
@<TRIPOS>BOND
     1     1     2    2
     2     2     3    1
     3     3     4    2
     4     3     5    1
     5     5     6   ar
     6     5    22   ar
     7     6     7   ar
     8     7     8    1
     9     7     9   ar
    10     9    10    2
    11     9    11   ar
    12    11    12    1
    13    11    22   ar
    14    12    13    1
    15    13    14   ar
    16    13    21   ar
    17    14    15   ar
    18    15    16   ar
    19    16    17   ar
    20    17    18   ar
    21    17    21   ar
    22    18    19   ar
    23    19    20   ar
    24    20    21   ar
    25     1    23    1
    26     1    24    1
    27     2    25    1
    28     6    26    1
    29    12    27    1
    30    12    28    1
    31    14    29    1
    32    15    30    1
    33    16    31    1
    34    18    32    1
    35    20    33    1
    36    22    34    1
@<TRIPOS>MOLECULE
../data/bude_mols_rdkit_confs2/molecule_56.pdb
 34 36 0 0 0
SMALL
GASTEIGER

@<TRIPOS>ATOM
      1  C1         4.6070    1.0670    2.0890 C.2     1  UNL1       -0.0951
      2  C2         3.5840    0.5770    1.4190 C.2     1  UNL1       -0.0214
      3  C3         3.5180    0.7750   -0.0140 C.2     1  UNL1        0.1870
      4  O1         4.4540    1.4190   -0.5970 O.2     1  UNL1       -0.2872
      5  C4         2.4410    0.2840   -0.8650 C.ar    1  UNL1        0.0407
      6  C5         2.4740    0.5270   -2.2200 C.ar    1  UNL1       -0.0088
      7  C6         1.4290    0.0380   -2.9700 C.ar    1  UNL1        0.1882
      8  F1         1.4590    0.2770   -4.3090 F       1  UNL1       -0.1998
      9  C7         0.3840   -0.6630   -2.4320 C.ar    1  UNL1        0.2870
     10  O2        -0.5260   -1.0760   -3.1690 O.2     1  UNL1       -0.2645
     11  N1         0.3510   -0.9020   -1.1020 N.ar    1  UNL1       -0.3078
     12  C8        -0.7240   -1.6590   -0.4950 C.3     1  UNL1        0.0519
     13  C9        -1.9040   -0.9110   -0.1160 C.ar    1  UNL1       -0.0170
     14  C10       -2.9640   -0.8840   -1.0140 C.ar    1  UNL1       -0.0561
     15  C11       -4.1230   -0.1720   -0.7920 C.ar    1  UNL1       -0.0594
     16  C12       -4.1950    0.5320    0.3870 C.ar    1  UNL1       -0.0363
     17  C13       -3.1510    0.5130    1.2880 C.ar    1  UNL1        0.0660
     18  N2        -2.9890    1.0920    2.4900 N.ar    1  UNL1       -0.2770
     19  N3        -1.8190    0.7720    2.9930 N.ar    1  UNL1       -0.1812
     20  C14       -1.1440   -0.0370    2.1510 C.ar    1  UNL1        0.0572
     21  C15       -1.9950   -0.2060    1.0500 C.ar    1  UNL1        0.0243
     22  C16        1.3550   -0.4370   -0.3610 C.ar    1  UNL1        0.0193
     23 H           4.6665    0.9332    3.1106 H       1  UNL1        0.0536
     24 H           5.3488    1.5847    1.5923 H       1  UNL1        0.0536
     25 H           2.8387    0.0583    1.9094 H       1  UNL1        0.0650
     26 H           3.2486    1.0529   -2.6541 H       1  UNL1        0.0655
     27 H          -0.3366   -2.1246    0.3870 H       1  UNL1        0.0542
     28 H          -1.0514   -2.3429   -1.2499 H       1  UNL1        0.0542
     29 H          -2.8793   -1.4233   -1.8898 H       1  UNL1        0.0621
     30 H          -4.8966   -0.1675   -1.4751 H       1  UNL1        0.0618
     31 H          -5.0417    1.0820    0.6005 H       1  UNL1        0.0639
     32 H          -3.6517    1.6722    2.9298 H       1  UNL1        0.1889
     33 H          -0.2052   -0.4432    2.2876 H       1  UNL1        0.0854
     34 H           1.3294   -0.6215    0.6540 H       1  UNL1        0.0817
@<TRIPOS>BOND
     1     1     2    2
     2     2     3    1
     3     3     4    2
     4     3     5    1
     5     5     6   ar
     6     5    22   ar
     7     6     7   ar
     8     7     8    1
     9     7     9   ar
    10     9    10    2
    11     9    11   ar
    12    11    12    1
    13    11    22   ar
    14    12    13    1
    15    13    14   ar
    16    13    21   ar
    17    14    15   ar
    18    15    16   ar
    19    16    17   ar
    20    17    18   ar
    21    17    21   ar
    22    18    19   ar
    23    19    20   ar
    24    20    21   ar
    25     1    23    1
    26     1    24    1
    27     2    25    1
    28     6    26    1
    29    12    27    1
    30    12    28    1
    31    14    29    1
    32    15    30    1
    33    16    31    1
    34    18    32    1
    35    20    33    1
    36    22    34    1
@<TRIPOS>MOLECULE
../data/bude_mols_rdkit_confs2/molecule_56.pdb
 34 36 0 0 0
SMALL
GASTEIGER

@<TRIPOS>ATOM
      1  C1         3.8920    0.7610    1.7580 C.2     1  UNL1       -0.0951
      2  C2         4.1820   -0.4810    1.5360 C.2     1  UNL1       -0.0214
      3  C3         3.5930   -1.5250    0.7700 C.2     1  UNL1        0.1870
      4  O1         4.2470   -2.6600    0.8380 O.2     1  UNL1       -0.2872
      5  C4         2.4360   -1.5550   -0.0450 C.ar    1  UNL1        0.0407
      6  C5         2.1090   -2.7700   -0.6870 C.ar    1  UNL1       -0.0088
      7  C6         1.0150   -2.8810   -1.4860 C.ar    1  UNL1        0.1882
      8  F1         0.6920   -4.0670   -2.1150 F       1  UNL1       -0.1998
      9  C7         0.1910   -1.8000   -1.6900 C.ar    1  UNL1        0.2870
     10  O2        -0.8240   -1.9600   -2.4510 O.2     1  UNL1       -0.2645
     11  N1         0.4600   -0.6330   -1.1050 N.ar    1  UNL1       -0.3078
     12  C8        -0.3840    0.5080   -1.3030 C.3     1  UNL1        0.0519
     13  C9        -1.4740    0.5970   -0.3010 C.ar    1  UNL1       -0.0170
     14  C10       -1.6410   -0.3280    0.7040 C.ar    1  UNL1       -0.0561
     15  C11       -2.6800   -0.1760    1.5970 C.ar    1  UNL1       -0.0594
     16  C12       -3.5350    0.8980    1.4720 C.ar    1  UNL1       -0.0363
     17  C13       -3.3960    1.8440    0.4760 C.ar    1  UNL1        0.0660
     18  N2        -4.0460    2.9630    0.1060 N.ar    1  UNL1       -0.2770
     19  N3        -3.4830    3.5110   -0.9500 N.ar    1  UNL1       -0.1812
     20  C14       -2.4350    2.7440   -1.2950 C.ar    1  UNL1        0.0572
     21  C15       -2.3390    1.6720   -0.4170 C.ar    1  UNL1        0.0243
     22  C16        1.5480   -0.5370   -0.3150 C.ar    1  UNL1        0.0193
     23 H           4.4955    1.3300    2.3720 H       1  UNL1        0.0536
     24 H           3.0573    1.1821    1.3209 H       1  UNL1        0.0536
     25 H           5.0373   -0.7833    2.0280 H       1  UNL1        0.0650
     26 H           2.7153   -3.5932   -0.5460 H       1  UNL1        0.0655
     27 H          -0.8202    0.4456   -2.2781 H       1  UNL1        0.0542
     28 H           0.2245    1.3815   -1.1957 H       1  UNL1        0.0542
     29 H          -0.9945   -1.1280    0.7884 H       1  UNL1        0.0621
     30 H          -2.8170   -0.8626    2.3551 H       1  UNL1        0.0618
     31 H          -4.3080    0.9987    2.1483 H       1  UNL1        0.0639
     32 H          -4.8385    3.3242    0.5650 H       1  UNL1        0.1889
     33 H          -1.8003    2.9235   -2.0887 H       1  UNL1        0.0854
     34 H           1.7316    0.3780    0.1255 H       1  UNL1        0.0817
@<TRIPOS>BOND
     1     1     2    2
     2     2     3    1
     3     3     4    2
     4     3     5    1
     5     5     6   ar
     6     5    22   ar
     7     6     7   ar
     8     7     8    1
     9     7     9   ar
    10     9    10    2
    11     9    11   ar
    12    11    12    1
    13    11    22   ar
    14    12    13    1
    15    13    14   ar
    16    13    21   ar
    17    14    15   ar
    18    15    16   ar
    19    16    17   ar
    20    17    18   ar
    21    17    21   ar
    22    18    19   ar
    23    19    20   ar
    24    20    21   ar
    25     1    23    1
    26     1    24    1
    27     2    25    1
    28     6    26    1
    29    12    27    1
    30    12    28    1
    31    14    29    1
    32    15    30    1
    33    16    31    1
    34    18    32    1
    35    20    33    1
    36    22    34    1
@<TRIPOS>MOLECULE
../data/bude_mols_rdkit_confs2/molecule_56.pdb
 34 36 0 0 0
SMALL
GASTEIGER

@<TRIPOS>ATOM
      1  C1         5.7170   -0.1310    0.8740 C.2     1  UNL1       -0.0951
      2  C2         4.8580    0.8360    0.8480 C.2     1  UNL1       -0.0214
      3  C3         3.5230    0.9590    0.4090 C.2     1  UNL1        0.1870
      4  O1         3.0340    2.1770    0.5870 O.2     1  UNL1       -0.2872
      5  C4         2.5870    0.0570   -0.1840 C.ar    1  UNL1        0.0407
      6  C5         2.8400   -1.2390   -0.4680 C.ar    1  UNL1       -0.0088
      7  C6         1.8370   -2.0310   -1.0530 C.ar    1  UNL1        0.1882
      8  F1         2.1420   -3.3280   -1.3180 F       1  UNL1       -0.1998
      9  C7         0.6020   -1.5400   -1.3500 C.ar    1  UNL1        0.2870
     10  O2        -0.2300   -2.3200   -1.8700 O.2     1  UNL1       -0.2645
     11  N1         0.3460   -0.2580   -1.0710 N.ar    1  UNL1       -0.3078
     12  C8        -0.9580    0.2930   -1.3750 C.3     1  UNL1        0.0519
     13  C9        -1.9000    0.1410   -0.2370 C.ar    1  UNL1       -0.0170
     14  C10       -1.5320   -0.4590    0.9470 C.ar    1  UNL1       -0.0561
     15  C11       -2.4410   -0.5790    1.9790 C.ar    1  UNL1       -0.0594
     16  C12       -3.7330   -0.1100    1.8670 C.ar    1  UNL1       -0.0363
     17  C13       -4.1100    0.4940    0.6810 C.ar    1  UNL1        0.0660
     18  N2        -5.2730    1.0380    0.2800 N.ar    1  UNL1       -0.2770
     19  N3        -5.0920    1.4730   -0.9410 N.ar    1  UNL1       -0.1812
     20  C14       -3.8550    1.2420   -1.3740 C.ar    1  UNL1        0.0572
     21  C15       -3.1840    0.6080   -0.3490 C.ar    1  UNL1        0.0243
     22  C16        1.2880    0.5030   -0.5170 C.ar    1  UNL1        0.0193
     23 H           6.6623    0.0286    1.2561 H       1  UNL1        0.0536
     24 H           5.4570   -1.0620    0.5126 H       1  UNL1        0.0536
     25 H           5.2340    1.7154    1.2357 H       1  UNL1        0.0650
     26 H           3.7647   -1.6455   -0.2566 H       1  UNL1        0.0655
     27 H          -1.3589   -0.2156   -2.2267 H       1  UNL1        0.0542
     28 H          -0.8398    1.3381   -1.5716 H       1  UNL1        0.0542
     29 H          -0.5724   -0.8205    1.0631 H       1  UNL1        0.0621
     30 H          -2.1457   -1.0319    2.8580 H       1  UNL1        0.0618
     31 H          -4.4011   -0.2071    2.6475 H       1  UNL1        0.0639
     32 H          -6.1033    1.0977    0.8056 H       1  UNL1        0.1889
     33 H          -3.4712    1.4897   -2.2994 H       1  UNL1        0.0854
     34 H           1.0529    1.4877   -0.3168 H       1  UNL1        0.0817
@<TRIPOS>BOND
     1     1     2    2
     2     2     3    1
     3     3     4    2
     4     3     5    1
     5     5     6   ar
     6     5    22   ar
     7     6     7   ar
     8     7     8    1
     9     7     9   ar
    10     9    10    2
    11     9    11   ar
    12    11    12    1
    13    11    22   ar
    14    12    13    1
    15    13    14   ar
    16    13    21   ar
    17    14    15   ar
    18    15    16   ar
    19    16    17   ar
    20    17    18   ar
    21    17    21   ar
    22    18    19   ar
    23    19    20   ar
    24    20    21   ar
    25     1    23    1
    26     1    24    1
    27     2    25    1
    28     6    26    1
    29    12    27    1
    30    12    28    1
    31    14    29    1
    32    15    30    1
    33    16    31    1
    34    18    32    1
    35    20    33    1
    36    22    34    1
@<TRIPOS>MOLECULE
../data/bude_mols_rdkit_confs2/molecule_56.pdb
 34 36 0 0 0
SMALL
GASTEIGER

@<TRIPOS>ATOM
      1  C1         5.3180    2.0080    1.2840 C.2     1  UNL1       -0.0951
      2  C2         4.4640    1.0060    1.3590 C.2     1  UNL1       -0.0214
      3  C3         3.3130    0.9030    0.4690 C.2     1  UNL1        0.1870
      4  O1         3.1590    1.8140   -0.3840 O.2     1  UNL1       -0.2872
      5  C4         2.3540   -0.1990    0.5340 C.ar    1  UNL1        0.0407
      6  C5         2.4780   -1.2200    1.4470 C.ar    1  UNL1       -0.0088
      7  C6         1.5340   -2.2250    1.4450 C.ar    1  UNL1        0.1882
      8  F1         1.6480   -3.2370    2.3430 F       1  UNL1       -0.1998
      9  C7         0.4900   -2.2390    0.5760 C.ar    1  UNL1        0.2870
     10  O2        -0.3710   -3.1560    0.5740 O.2     1  UNL1       -0.2645
     11  N1         0.3700   -1.2300   -0.3230 N.ar    1  UNL1       -0.3078
     12  C8        -0.7070   -1.2170   -1.2850 C.3     1  UNL1        0.0519
     13  C9        -1.9630   -0.6350   -0.8580 C.ar    1  UNL1       -0.0170
     14  C10       -2.9920   -1.4840   -0.4170 C.ar    1  UNL1       -0.0561
     15  C11       -4.2040   -1.0080    0.0310 C.ar    1  UNL1       -0.0594
     16  C12       -4.4540    0.3360    0.0630 C.ar    1  UNL1       -0.0363
     17  C13       -3.4630    1.1950   -0.3650 C.ar    1  UNL1        0.0660
     18  N2        -3.4910    2.5320   -0.4350 N.ar    1  UNL1       -0.2770
     19  N3        -2.3360    2.8960   -0.9130 N.ar    1  UNL1       -0.1812
     20  C14       -1.5410    1.8510   -1.1640 C.ar    1  UNL1        0.0572
     21  C15       -2.2310    0.7080   -0.8200 C.ar    1  UNL1        0.0243
     22  C16        1.2660   -0.2410   -0.3500 C.ar    1  UNL1        0.0193
     23 H           6.1221    2.0501    1.9295 H       1  UNL1        0.0536
     24 H           5.1822    2.7501    0.5798 H       1  UNL1        0.0536
     25 H           4.6146    0.2724    2.0690 H       1  UNL1        0.0650
     26 H           3.2609   -1.2337    2.1193 H       1  UNL1        0.0655
     27 H          -0.9003   -2.2309   -1.5669 H       1  UNL1        0.0542
     28 H          -0.3637   -0.5861   -2.0781 H       1  UNL1        0.0542
     29 H          -2.8334   -2.5037   -0.4293 H       1  UNL1        0.0621
     30 H          -4.9297   -1.6711    0.3452 H       1  UNL1        0.0618
     31 H          -5.3602    0.6982    0.3985 H       1  UNL1        0.0639
     32 H          -4.2359    3.1217   -0.1767 H       1  UNL1        0.1889
     33 H          -0.5833    1.8924   -1.5464 H       1  UNL1        0.0854
     34 H           1.1547    0.5159   -1.0426 H       1  UNL1        0.0817
@<TRIPOS>BOND
     1     1     2    2
     2     2     3    1
     3     3     4    2
     4     3     5    1
     5     5     6   ar
     6     5    22   ar
     7     6     7   ar
     8     7     8    1
     9     7     9   ar
    10     9    10    2
    11     9    11   ar
    12    11    12    1
    13    11    22   ar
    14    12    13    1
    15    13    14   ar
    16    13    21   ar
    17    14    15   ar
    18    15    16   ar
    19    16    17   ar
    20    17    18   ar
    21    17    21   ar
    22    18    19   ar
    23    19    20   ar
    24    20    21   ar
    25     1    23    1
    26     1    24    1
    27     2    25    1
    28     6    26    1
    29    12    27    1
    30    12    28    1
    31    14    29    1
    32    15    30    1
    33    16    31    1
    34    18    32    1
    35    20    33    1
    36    22    34    1
@<TRIPOS>MOLECULE
../data/bude_mols_rdkit_confs2/molecule_56.pdb
 34 36 0 0 0
SMALL
GASTEIGER

@<TRIPOS>ATOM
      1  C1         4.6140    2.3870    0.6960 C.2     1  UNL1       -0.0951
      2  C2         3.6310    1.5470    0.4190 C.2     1  UNL1       -0.0214
      3  C3         3.4840    0.2750    1.1060 C.2     1  UNL1        0.1870
      4  O1         4.3250   -0.0290    1.9920 O.2     1  UNL1       -0.2872
      5  C4         2.4170   -0.6740    0.8270 C.ar    1  UNL1        0.0407
      6  C5         2.3380   -1.8740    1.5290 C.ar    1  UNL1       -0.0088
      7  C6         1.3170   -2.7450    1.2360 C.ar    1  UNL1        0.1882
      8  F1         1.2430   -3.9120    1.9220 F       1  UNL1       -0.1998
      9  C7         0.3610   -2.4890    0.2790 C.ar    1  UNL1        0.2870
     10  O2        -0.5320   -3.3500    0.0860 O.2     1  UNL1       -0.2645
     11  N1         0.4380   -1.3140   -0.4070 N.ar    1  UNL1       -0.3078
     12  C8        -0.5740   -1.0930   -1.4120 C.3     1  UNL1        0.0519
     13  C9        -1.8090   -0.4710   -0.9740 C.ar    1  UNL1       -0.0170
     14  C10       -2.9110   -1.2770   -0.7250 C.ar    1  UNL1       -0.0561
     15  C11       -4.1190   -0.7880   -0.2830 C.ar    1  UNL1       -0.0594
     16  C12       -4.2710    0.5610   -0.0680 C.ar    1  UNL1       -0.0363
     17  C13       -3.1930    1.3860   -0.3090 C.ar    1  UNL1        0.0660
     18  N2        -3.0650    2.7210   -0.2010 N.ar    1  UNL1       -0.2770
     19  N3        -1.8460    3.0520   -0.5580 N.ar    1  UNL1       -0.1812
     20  C14       -1.1350    1.9560   -0.9100 C.ar    1  UNL1        0.0572
     21  C15       -1.9700    0.8740   -0.7590 C.ar    1  UNL1        0.0243
     22  C16        1.4310   -0.4580   -0.1300 C.ar    1  UNL1        0.0193
     23 H           4.6867    3.2820    0.1873 H       1  UNL1        0.0536
     24 H           5.3084    2.1476    1.4209 H       1  UNL1        0.0536
     25 H           2.9458    1.8032   -0.3089 H       1  UNL1        0.0650
     26 H           3.0335   -2.1046    2.2557 H       1  UNL1        0.0655
     27 H          -0.8231   -2.0440   -1.8345 H       1  UNL1        0.0542
     28 H          -0.1387   -0.3964   -2.0977 H       1  UNL1        0.0542
     29 H          -2.8200   -2.2934   -0.8789 H       1  UNL1        0.0621
     30 H          -4.9077   -1.4317   -0.1136 H       1  UNL1        0.0618
     31 H          -5.1686    0.9463    0.2651 H       1  UNL1        0.0639
     32 H          -3.7670    3.3443    0.0957 H       1  UNL1        0.1889
     33 H          -0.1542    1.9359   -1.2304 H       1  UNL1        0.0854
     34 H           1.4668    0.4240   -0.6646 H       1  UNL1        0.0817
@<TRIPOS>BOND
     1     1     2    2
     2     2     3    1
     3     3     4    2
     4     3     5    1
     5     5     6   ar
     6     5    22   ar
     7     6     7   ar
     8     7     8    1
     9     7     9   ar
    10     9    10    2
    11     9    11   ar
    12    11    12    1
    13    11    22   ar
    14    12    13    1
    15    13    14   ar
    16    13    21   ar
    17    14    15   ar
    18    15    16   ar
    19    16    17   ar
    20    17    18   ar
    21    17    21   ar
    22    18    19   ar
    23    19    20   ar
    24    20    21   ar
    25     1    23    1
    26     1    24    1
    27     2    25    1
    28     6    26    1
    29    12    27    1
    30    12    28    1
    31    14    29    1
    32    15    30    1
    33    16    31    1
    34    18    32    1
    35    20    33    1
    36    22    34    1
@<TRIPOS>MOLECULE
../data/bude_mols_rdkit_confs2/molecule_56.pdb
 34 36 0 0 0
SMALL
GASTEIGER

@<TRIPOS>ATOM
      1  C1         5.5110    0.6530   -0.5180 C.2     1  UNL1       -0.0951
      2  C2         4.8070    0.5320    0.5620 C.2     1  UNL1       -0.0214
      3  C3         3.5050    0.0740    0.8270 C.2     1  UNL1        0.1870
      4  O1         3.1750    0.1380    2.1020 O.2     1  UNL1       -0.2872
      5  C4         2.4440   -0.4520    0.0050 C.ar    1  UNL1        0.0407
      6  C5         2.5790   -0.6870   -1.3360 C.ar    1  UNL1       -0.0088
      7  C6         1.5140   -1.1790   -2.0570 C.ar    1  UNL1        0.1882
      8  F1         1.6870   -1.3990   -3.3960 F       1  UNL1       -0.1998
      9  C7         0.3070   -1.4330   -1.4110 C.ar    1  UNL1        0.2870
     10  O2        -0.6020   -1.8770   -2.1190 O.2     1  UNL1       -0.2645
     11  N1         0.1450   -1.2160   -0.1200 N.ar    1  UNL1       -0.3078
     12  C8        -1.0600   -1.4340    0.6130 C.3     1  UNL1        0.0519
     13  C9        -1.9580   -0.2910    0.7790 C.ar    1  UNL1       -0.0170
     14  C10       -1.7420    0.5740    1.8790 C.ar    1  UNL1       -0.0561
     15  C11       -2.5070    1.6890    2.0200 C.ar    1  UNL1       -0.0594
     16  C12       -3.4960    2.0070    1.1170 C.ar    1  UNL1       -0.0363
     17  C13       -3.7120    1.1610    0.0400 C.ar    1  UNL1        0.0660
     18  N2        -4.5960    1.2120   -0.9420 N.ar    1  UNL1       -0.2770
     19  N3        -4.4370    0.1660   -1.7210 N.ar    1  UNL1       -0.1812
     20  C14       -3.4380   -0.6120   -1.2750 C.ar    1  UNL1        0.0572
     21  C15       -2.9380   -0.0020   -0.1340 C.ar    1  UNL1        0.0243
     22  C16        1.1900   -0.7370    0.5710 C.ar    1  UNL1        0.0193
     23 H           6.4726    1.0244   -0.4682 H       1  UNL1        0.0536
     24 H           5.1105    0.3780   -1.4285 H       1  UNL1        0.0536
     25 H           5.3098    0.8373    1.4100 H       1  UNL1        0.0650
     26 H           3.4775   -0.4959   -1.8064 H       1  UNL1        0.0655
     27 H          -0.7855   -1.7722    1.5903 H       1  UNL1        0.0542
     28 H          -1.6148   -2.1378    0.0284 H       1  UNL1        0.0542
     29 H          -1.0070    0.3590    2.5708 H       1  UNL1        0.0621
     30 H          -2.3419    2.3132    2.8250 H       1  UNL1        0.0618
     31 H          -4.0658    2.8587    1.2393 H       1  UNL1        0.0639
     32 H          -5.2669    1.9212   -1.0692 H       1  UNL1        0.1889
     33 H          -3.1065   -1.4927   -1.6987 H       1  UNL1        0.0854
     34 H           1.0652   -0.5672    1.5813 H       1  UNL1        0.0817
@<TRIPOS>BOND
     1     1     2    2
     2     2     3    1
     3     3     4    2
     4     3     5    1
     5     5     6   ar
     6     5    22   ar
     7     6     7   ar
     8     7     8    1
     9     7     9   ar
    10     9    10    2
    11     9    11   ar
    12    11    12    1
    13    11    22   ar
    14    12    13    1
    15    13    14   ar
    16    13    21   ar
    17    14    15   ar
    18    15    16   ar
    19    16    17   ar
    20    17    18   ar
    21    17    21   ar
    22    18    19   ar
    23    19    20   ar
    24    20    21   ar
    25     1    23    1
    26     1    24    1
    27     2    25    1
    28     6    26    1
    29    12    27    1
    30    12    28    1
    31    14    29    1
    32    15    30    1
    33    16    31    1
    34    18    32    1
    35    20    33    1
    36    22    34    1
@<TRIPOS>MOLECULE
../data/bude_mols_rdkit_confs2/molecule_56.pdb
 34 36 0 0 0
SMALL
GASTEIGER

@<TRIPOS>ATOM
      1  C1         4.7010    0.3650   -2.3400 C.2     1  UNL1       -0.0951
      2  C2         3.6950    0.3060   -1.4870 C.2     1  UNL1       -0.0214
      3  C3         3.5860   -0.7840   -0.5640 C.2     1  UNL1        0.1870
      4  O1         4.4740   -1.7000   -0.5750 O.2     1  UNL1       -0.2872
      5  C4         2.4720   -0.8440    0.3750 C.ar    1  UNL1        0.0407
      6  C5         2.4120   -1.9310    1.2580 C.ar    1  UNL1       -0.0088
      7  C6         1.3680   -1.9970    2.1460 C.ar    1  UNL1        0.1882
      8  F1         1.3350   -3.0830    3.0050 F       1  UNL1       -0.1998
      9  C7         0.3850   -1.0380    2.1990 C.ar    1  UNL1        0.2870
     10  O2        -0.5380   -1.1540    3.0290 O.2     1  UNL1       -0.2645
     11  N1         0.4370   -0.0000    1.3620 N.ar    1  UNL1       -0.3078
     12  C8        -0.5250    1.0130    1.4100 C.3     1  UNL1        0.0519
     13  C9        -1.7440    0.9970    0.6590 C.ar    1  UNL1       -0.0170
     14  C10       -2.6100    2.0920    0.8490 C.ar    1  UNL1       -0.0561
     15  C11       -3.8010    2.1820    0.1840 C.ar    1  UNL1       -0.0594
     16  C12       -4.2050    1.2080   -0.6960 C.ar    1  UNL1       -0.0363
     17  C13       -3.3800    0.1370   -0.8950 C.ar    1  UNL1        0.0660
     18  N2        -3.5220   -0.9420   -1.6860 N.ar    1  UNL1       -0.2770
     19  N3        -2.4640   -1.6890   -1.5320 N.ar    1  UNL1       -0.1812
     20  C14       -1.6060   -1.1340   -0.6500 C.ar    1  UNL1        0.0572
     21  C15       -2.1610    0.0440   -0.2160 C.ar    1  UNL1        0.0243
     22  C16        1.4660    0.0710    0.4820 C.ar    1  UNL1        0.0193
     23 H           4.7712    1.1542   -3.0013 H       1  UNL1        0.0536
     24 H           5.4171   -0.3781   -2.3455 H       1  UNL1        0.0536
     25 H           2.9812    1.0514   -1.4852 H       1  UNL1        0.0650
     26 H           3.1369   -2.6653    1.2406 H       1  UNL1        0.0655
     27 H          -0.0173    1.9089    1.1193 H       1  UNL1        0.0542
     28 H          -0.8982    0.8915    2.4054 H       1  UNL1        0.0542
     29 H          -2.3395    2.8421    1.5041 H       1  UNL1        0.0621
     30 H          -4.4096    2.9994    0.3467 H       1  UNL1        0.0618
     31 H          -5.1063    1.2829   -1.1930 H       1  UNL1        0.0639
     32 H          -4.2871   -1.1333   -2.2752 H       1  UNL1        0.1889
     33 H          -0.6974   -1.5246   -0.3554 H       1  UNL1        0.0854
     34 H           1.4900    0.8809   -0.1571 H       1  UNL1        0.0817
@<TRIPOS>BOND
     1     1     2    2
     2     2     3    1
     3     3     4    2
     4     3     5    1
     5     5     6   ar
     6     5    22   ar
     7     6     7   ar
     8     7     8    1
     9     7     9   ar
    10     9    10    2
    11     9    11   ar
    12    11    12    1
    13    11    22   ar
    14    12    13    1
    15    13    14   ar
    16    13    21   ar
    17    14    15   ar
    18    15    16   ar
    19    16    17   ar
    20    17    18   ar
    21    17    21   ar
    22    18    19   ar
    23    19    20   ar
    24    20    21   ar
    25     1    23    1
    26     1    24    1
    27     2    25    1
    28     6    26    1
    29    12    27    1
    30    12    28    1
    31    14    29    1
    32    15    30    1
    33    16    31    1
    34    18    32    1
    35    20    33    1
    36    22    34    1
