@<TRIPOS>MOLECULE
../data/bude_mols_rdkit_confs2/molecule_12.pdb
 33 34 0 0 0
SMALL
GASTEIGER

@<TRIPOS>ATOM
      1 C          -5.3060    0.6110   -0.3170 C.3     1  UNL1       -0.0395
      2 C          -3.8620    0.5590   -0.0680 C.ar    1  UNL1       -0.0473
      3 C          -3.0650    1.5620   -0.5760 C.ar    1  UNL1       -0.0551
      4 C          -1.7000    1.5420   -0.3580 C.ar    1  UNL1       -0.0190
      5 C          -1.1400    0.5100    0.3720 C.ar    1  UNL1        0.1322
      6 O           0.2150    0.5250    0.5660 O.3     1  UNL1       -0.4223
      7 C           1.1410   -0.0650   -0.2790 C.2     1  UNL1        0.3447
      8 O           0.7310   -0.6610   -1.3000 O.2     1  UNL1       -0.2445
      9 C           2.5780    0.0090    0.0200 C.ar    1  UNL1        0.0658
     10 C           3.0050    0.6640    1.1400 C.ar    1  UNL1       -0.0473
     11 C           4.3500    0.7310    1.4170 C.ar    1  UNL1       -0.0546
     12 C           5.2940    0.1470    0.5830 C.ar    1  UNL1        0.0156
     13 C           4.8700   -0.5110   -0.5400 C.ar    1  UNL1        0.2739
     14 N           5.8070   -1.1240   -1.4210 N.pl3   1  UNL1        0.0796
     15 O           5.3940   -1.7140   -2.4310 O.2     1  UNL1        0.0414
     16 O           7.1540   -1.0760   -1.1750 O.co2   1  UNL1       -0.5760
     17 C           3.5200   -0.5660   -0.7990 C.ar    1  UNL1        0.0295
     18 C          -1.9630   -0.4900    0.8740 C.ar    1  UNL1       -0.0161
     19 C          -3.3160   -0.4720    0.6590 C.ar    1  UNL1       -0.0441
     20 C          -4.1570   -1.5390    1.2010 C.3     1  UNL1       -0.0393
     21 H          -5.5370    1.4807   -0.8959 H       1  UNL1        0.0278
     22 H          -5.8275    0.6548    0.6163 H       1  UNL1        0.0278
     23 H          -5.6072   -0.2646   -0.8531 H       1  UNL1        0.0278
     24 H          -3.4882    2.3298   -1.1204 H       1  UNL1        0.0621
     25 H          -1.1026    2.2929   -0.7379 H       1  UNL1        0.0654
     26 H           2.3218    1.1061    1.7747 H       1  UNL1        0.0626
     27 H           4.6655    1.2272    2.2651 H       1  UNL1        0.0620
     28 H           6.2997    0.2080    0.8063 H       1  UNL1        0.0685
     29 H           3.2004   -1.0612   -1.6462 H       1  UNL1        0.0693
     30 H          -1.5474   -1.2613    1.4194 H       1  UNL1        0.0657
     31 H          -5.1775   -1.3589    0.9345 H       1  UNL1        0.0278
     32 H          -4.0649   -1.5591    2.2668 H       1  UNL1        0.0278
     33 H          -3.8438   -2.4795    0.7981 H       1  UNL1        0.0278
@<TRIPOS>UNITY_ATOM_ATTR
14 1
charge 1
16 1
charge -1
@<TRIPOS>BOND
     1     1     2    1
     2     2     3   ar
     3     2    19   ar
     4     3     4   ar
     5     4     5   ar
     6     5     6    1
     7     5    18   ar
     8     6     7    1
     9     7     8    2
    10     7     9    1
    11     9    10   ar
    12     9    17   ar
    13    10    11   ar
    14    11    12   ar
    15    12    13   ar
    16    13    14    1
    17    13    17   ar
    18    14    15    2
    19    14    16    1
    20    18    19   ar
    21    19    20    1
    22     1    21    1
    23     1    22    1
    24     1    23    1
    25     3    24    1
    26     4    25    1
    27    10    26    1
    28    11    27    1
    29    12    28    1
    30    17    29    1
    31    18    30    1
    32    20    31    1
    33    20    32    1
    34    20    33    1
@<TRIPOS>MOLECULE
../data/bude_mols_rdkit_confs2/molecule_12.pdb
 33 34 0 0 0
SMALL
GASTEIGER

@<TRIPOS>ATOM
      1 C          -5.2820    0.9080   -0.0500 C.3     1  UNL1       -0.0395
      2 C          -3.8790    0.4870   -0.1260 C.ar    1  UNL1       -0.0473
      3 C          -3.1480    0.8030   -1.2500 C.ar    1  UNL1       -0.0551
      4 C          -1.8210    0.4110   -1.3340 C.ar    1  UNL1       -0.0190
      5 C          -1.2120   -0.2910   -0.3160 C.ar    1  UNL1        0.1322
      6 O           0.1210   -0.6600   -0.4530 O.3     1  UNL1       -0.4223
      7 C           1.1770    0.1360   -0.0350 C.2     1  UNL1        0.3447
      8 O           0.8760    1.2380    0.4900 O.2     1  UNL1       -0.2445
      9 C           2.5610   -0.2390   -0.1730 C.ar    1  UNL1        0.0658
     10 C           2.9240   -1.4410   -0.7450 C.ar    1  UNL1       -0.0473
     11 C           4.2380   -1.7760   -0.8660 C.ar    1  UNL1       -0.0546
     12 C           5.2410   -0.9180   -0.4190 C.ar    1  UNL1        0.0156
     13 C           4.8980    0.2860    0.1540 C.ar    1  UNL1        0.2739
     14 N           5.9240    1.1530    0.6050 N.pl3   1  UNL1        0.0796
     15 O           7.1240    0.8370    0.4890 O.2     1  UNL1        0.0414
     16 O           5.6450    2.3660    1.1840 O.co2   1  UNL1       -0.5760
     17 C           3.5600    0.5990    0.2640 C.ar    1  UNL1        0.0295
     18 C          -1.9630   -0.5970    0.7990 C.ar    1  UNL1       -0.0161
     19 C          -3.2960   -0.2050    0.8870 C.ar    1  UNL1       -0.0441
     20 C          -4.0510   -0.5530    2.0900 C.3     1  UNL1       -0.0393
     21 H          -5.5448    1.4359   -0.9428 H       1  UNL1        0.0278
     22 H          -5.4167    1.5490    0.7961 H       1  UNL1        0.0278
     23 H          -5.9079    0.0462    0.0522 H       1  UNL1        0.0278
     24 H          -3.5850    1.3277   -2.0238 H       1  UNL1        0.0621
     25 H          -1.2768    0.6501   -2.1776 H       1  UNL1        0.0654
     26 H           2.1957   -2.0894   -1.0828 H       1  UNL1        0.0626
     27 H           4.4951   -2.6787   -1.2951 H       1  UNL1        0.0620
     28 H           6.2336   -1.1831   -0.5168 H       1  UNL1        0.0685
     29 H           3.2969    1.5003    0.6924 H       1  UNL1        0.0693
     30 H          -1.5326   -1.1220    1.5763 H       1  UNL1        0.0657
     31 H          -5.0512   -0.1831    2.0028 H       1  UNL1        0.0278
     32 H          -3.5815   -0.1136    2.9453 H       1  UNL1        0.0278
     33 H          -4.0727   -1.6169    2.2022 H       1  UNL1        0.0278
@<TRIPOS>UNITY_ATOM_ATTR
14 1
charge 1
16 1
charge -1
@<TRIPOS>BOND
     1     1     2    1
     2     2     3   ar
     3     2    19   ar
     4     3     4   ar
     5     4     5   ar
     6     5     6    1
     7     5    18   ar
     8     6     7    1
     9     7     8    2
    10     7     9    1
    11     9    10   ar
    12     9    17   ar
    13    10    11   ar
    14    11    12   ar
    15    12    13   ar
    16    13    14    1
    17    13    17   ar
    18    14    15    2
    19    14    16    1
    20    18    19   ar
    21    19    20    1
    22     1    21    1
    23     1    22    1
    24     1    23    1
    25     3    24    1
    26     4    25    1
    27    10    26    1
    28    11    27    1
    29    12    28    1
    30    17    29    1
    31    18    30    1
    32    20    31    1
    33    20    32    1
    34    20    33    1
@<TRIPOS>MOLECULE
../data/bude_mols_rdkit_confs2/molecule_12.pdb
 33 34 0 0 0
SMALL
GASTEIGER

@<TRIPOS>ATOM
      1 C          -5.3720   -0.1440   -0.1600 C.3     1  UNL1       -0.0395
      2 C          -3.8930   -0.0400   -0.2550 C.ar    1  UNL1       -0.0473
      3 C          -3.1930   -0.3580   -1.4010 C.ar    1  UNL1       -0.0551
      4 C          -1.8040   -0.2390   -1.4260 C.ar    1  UNL1       -0.0190
      5 C          -1.0810    0.1930   -0.3320 C.ar    1  UNL1        0.1322
      6 O           0.3100    0.3030   -0.3840 O.3     1  UNL1       -0.4223
      7 C           1.1580   -0.7400   -0.0440 C.2     1  UNL1        0.3447
      8 O           0.6100   -1.8100    0.3200 O.2     1  UNL1       -0.2445
      9 C           2.6100   -0.6240   -0.0980 C.ar    1  UNL1        0.0658
     10 C           3.4150   -1.6870    0.2500 C.ar    1  UNL1       -0.0473
     11 C           4.7990   -1.6050    0.2080 C.ar    1  UNL1       -0.0546
     12 C           5.4050   -0.4570   -0.1830 C.ar    1  UNL1        0.0156
     13 C           4.6320    0.6400   -0.5420 C.ar    1  UNL1        0.2739
     14 N           5.2040    1.8620   -0.9570 N.pl3   1  UNL1        0.0796
     15 O           4.4840    2.8130   -1.2680 O.2     1  UNL1        0.0414
     16 O           6.5640    1.9810   -1.0110 O.co2   1  UNL1       -0.5760
     17 C           3.2510    0.5300   -0.4910 C.ar    1  UNL1        0.0295
     18 C          -1.7960    0.5070    0.8060 C.ar    1  UNL1       -0.0161
     19 C          -3.1730    0.3890    0.8300 C.ar    1  UNL1       -0.0441
     20 C          -3.8790    0.7380    2.0700 C.3     1  UNL1       -0.0393
     21 H          -5.7657   -0.4919   -1.0921 H       1  UNL1        0.0278
     22 H          -5.7835    0.8179    0.0642 H       1  UNL1        0.0278
     23 H          -5.6320   -0.8329    0.6164 H       1  UNL1        0.0278
     24 H          -3.6979   -0.6841   -2.2399 H       1  UNL1        0.0621
     25 H          -1.2988   -0.4823   -2.2924 H       1  UNL1        0.0654
     26 H           2.9749   -2.5706    0.5509 H       1  UNL1        0.0626
     27 H           5.3702   -2.4218    0.4757 H       1  UNL1        0.0620
     28 H           6.4349   -0.3984   -0.2138 H       1  UNL1        0.0685
     29 H           2.6796    1.3466   -0.7586 H       1  UNL1        0.0693
     30 H          -1.2970    0.8335    1.6483 H       1  UNL1        0.0657
     31 H          -4.9308    0.5963    1.9336 H       1  UNL1        0.0278
     32 H          -3.6858    1.7616    2.3144 H       1  UNL1        0.0278
     33 H          -3.5347    0.1103    2.8652 H       1  UNL1        0.0278
@<TRIPOS>UNITY_ATOM_ATTR
14 1
charge 1
16 1
charge -1
@<TRIPOS>BOND
     1     1     2    1
     2     2     3   ar
     3     2    19   ar
     4     3     4   ar
     5     4     5   ar
     6     5     6    1
     7     5    18   ar
     8     6     7    1
     9     7     8    2
    10     7     9    1
    11     9    10   ar
    12     9    17   ar
    13    10    11   ar
    14    11    12   ar
    15    12    13   ar
    16    13    14    1
    17    13    17   ar
    18    14    15    2
    19    14    16    1
    20    18    19   ar
    21    19    20    1
    22     1    21    1
    23     1    22    1
    24     1    23    1
    25     3    24    1
    26     4    25    1
    27    10    26    1
    28    11    27    1
    29    12    28    1
    30    17    29    1
    31    18    30    1
    32    20    31    1
    33    20    32    1
    34    20    33    1
@<TRIPOS>MOLECULE
../data/bude_mols_rdkit_confs2/molecule_12.pdb
 33 34 0 0 0
SMALL
GASTEIGER

@<TRIPOS>ATOM
      1 C          -5.2800    0.5750   -0.4660 C.3     1  UNL1       -0.0395
      2 C          -3.8130    0.3580   -0.3930 C.ar    1  UNL1       -0.0473
      3 C          -2.9620    1.1790   -1.1060 C.ar    1  UNL1       -0.0551
      4 C          -1.5920    1.0030   -1.0590 C.ar    1  UNL1       -0.0190
      5 C          -1.0400   -0.0030   -0.2950 C.ar    1  UNL1        0.1322
      6 O           0.3440   -0.1440   -0.2770 O.3     1  UNL1       -0.4223
      7 C           1.1200    0.5200    0.6550 C.2     1  UNL1        0.3447
      8 O           0.5120    1.2510    1.4780 O.2     1  UNL1       -0.2445
      9 C           2.5740    0.3950    0.7030 C.ar    1  UNL1        0.0658
     10 C           3.2930    1.0820    1.6570 C.ar    1  UNL1       -0.0473
     11 C           4.6770    0.9890    1.7330 C.ar    1  UNL1       -0.0546
     12 C           5.3870    0.2010    0.8540 C.ar    1  UNL1        0.0156
     13 C           4.6760   -0.4910   -0.1030 C.ar    1  UNL1        0.2739
     14 N           5.3630   -1.3170   -1.0340 N.pl3   1  UNL1        0.0796
     15 O           6.6030   -1.4030   -0.9680 O.2     1  UNL1        0.0414
     16 O           4.6760   -2.0160   -1.9970 O.co2   1  UNL1       -0.5760
     17 C           3.2810   -0.3920   -0.1760 C.ar    1  UNL1        0.0295
     18 C          -1.8670   -0.8410    0.4300 C.ar    1  UNL1       -0.0161
     19 C          -3.2270   -0.6360    0.3600 C.ar    1  UNL1       -0.0441
     20 C          -4.1190   -1.5320    1.1350 C.3     1  UNL1       -0.0393
     21 H          -5.4864    1.4025   -1.1121 H       1  UNL1        0.0278
     22 H          -5.6588    0.7835    0.5127 H       1  UNL1        0.0278
     23 H          -5.7519   -0.3046   -0.8512 H       1  UNL1        0.0278
     24 H          -3.3560    1.9375   -1.6843 H       1  UNL1        0.0621
     25 H          -0.9769    1.6302   -1.6006 H       1  UNL1        0.0654
     26 H           2.7910    1.6803    2.3316 H       1  UNL1        0.0626
     27 H           5.1818    1.5193    2.4603 H       1  UNL1        0.0620
     28 H           6.4151    0.1312    0.9100 H       1  UNL1        0.0685
     29 H           2.7736   -0.9197   -0.9034 H       1  UNL1        0.0693
     30 H          -1.4752   -1.6004    1.0086 H       1  UNL1        0.0657
     31 H          -5.1376   -1.2453    0.9765 H       1  UNL1        0.0278
     32 H          -3.8847   -1.4550    2.1762 H       1  UNL1        0.0278
     33 H          -3.9783   -2.5422    0.8115 H       1  UNL1        0.0278
@<TRIPOS>UNITY_ATOM_ATTR
14 1
charge 1
16 1
charge -1
@<TRIPOS>BOND
     1     1     2    1
     2     2     3   ar
     3     2    19   ar
     4     3     4   ar
     5     4     5   ar
     6     5     6    1
     7     5    18   ar
     8     6     7    1
     9     7     8    2
    10     7     9    1
    11     9    10   ar
    12     9    17   ar
    13    10    11   ar
    14    11    12   ar
    15    12    13   ar
    16    13    14    1
    17    13    17   ar
    18    14    15    2
    19    14    16    1
    20    18    19   ar
    21    19    20    1
    22     1    21    1
    23     1    22    1
    24     1    23    1
    25     3    24    1
    26     4    25    1
    27    10    26    1
    28    11    27    1
    29    12    28    1
    30    17    29    1
    31    18    30    1
    32    20    31    1
    33    20    32    1
    34    20    33    1
@<TRIPOS>MOLECULE
../data/bude_mols_rdkit_confs2/molecule_12.pdb
 33 34 0 0 0
SMALL
GASTEIGER

@<TRIPOS>ATOM
      1 C           5.3160    0.8230    0.2880 C.3     1  UNL1       -0.0395
      2 C           3.8790    0.6490    0.0390 C.ar    1  UNL1       -0.0473
      3 C           3.0520    1.7260   -0.2080 C.ar    1  UNL1       -0.0551
      4 C           1.7000    1.5050   -0.4360 C.ar    1  UNL1       -0.0190
      5 C           1.1490    0.2400   -0.4260 C.ar    1  UNL1        0.1322
      6 O          -0.2130    0.1070   -0.6650 O.3     1  UNL1       -0.4223
      7 C          -1.1630    0.1350    0.3450 C.2     1  UNL1        0.3447
      8 O          -0.7190    0.2910    1.5200 O.2     1  UNL1       -0.2445
      9 C          -2.5910   -0.0060    0.0770 C.ar    1  UNL1        0.0658
     10 C          -3.0090   -0.1730   -1.2260 C.ar    1  UNL1       -0.0473
     11 C          -4.3760   -0.3090   -1.4950 C.ar    1  UNL1       -0.0546
     12 C          -5.3140   -0.2800   -0.4880 C.ar    1  UNL1        0.0156
     13 C          -4.9020   -0.1120    0.8330 C.ar    1  UNL1        0.2739
     14 N          -5.8540   -0.0810    1.8750 N.pl3   1  UNL1        0.0796
     15 O          -7.0540   -0.2030    1.6150 O.2     1  UNL1        0.0414
     16 O          -5.4640    0.0830    3.1710 O.co2   1  UNL1       -0.5760
     17 C          -3.5400    0.0200    1.0650 C.ar    1  UNL1        0.0295
     18 C           1.9740   -0.8200   -0.1820 C.ar    1  UNL1       -0.0161
     19 C           3.3080   -0.6150    0.0450 C.ar    1  UNL1       -0.0441
     20 C           4.1740   -1.7820    0.3070 C.3     1  UNL1       -0.0393
     21 H           5.5626    1.8632    0.2420 H       1  UNL1        0.0278
     22 H           5.8736    0.2911   -0.4543 H       1  UNL1        0.0278
     23 H           5.5587    0.4415    1.2578 H       1  UNL1        0.0278
     24 H           3.4339    2.6846   -0.2231 H       1  UNL1        0.0621
     25 H           1.0866    2.3144   -0.6191 H       1  UNL1        0.0654
     26 H          -2.3213   -0.1975   -1.9951 H       1  UNL1        0.0626
     27 H          -4.6877   -0.4339   -2.4708 H       1  UNL1        0.0620
     28 H          -6.3167   -0.3821   -0.7098 H       1  UNL1        0.0685
     29 H          -3.2233    0.1451    2.0392 H       1  UNL1        0.0693
     30 H           1.5908   -1.7781   -0.1687 H       1  UNL1        0.0657
     31 H           5.1798   -1.4519    0.4627 H       1  UNL1        0.0278
     32 H           4.1421   -2.4453   -0.5320 H       1  UNL1        0.0278
     33 H           3.8276   -2.2944    1.1801 H       1  UNL1        0.0278
@<TRIPOS>UNITY_ATOM_ATTR
14 1
charge 1
16 1
charge -1
@<TRIPOS>BOND
     1     1     2    1
     2     2     3   ar
     3     2    19   ar
     4     3     4   ar
     5     4     5   ar
     6     5     6    1
     7     5    18   ar
     8     6     7    1
     9     7     8    2
    10     7     9    1
    11     9    10   ar
    12     9    17   ar
    13    10    11   ar
    14    11    12   ar
    15    12    13   ar
    16    13    14    1
    17    13    17   ar
    18    14    15    2
    19    14    16    1
    20    18    19   ar
    21    19    20    1
    22     1    21    1
    23     1    22    1
    24     1    23    1
    25     3    24    1
    26     4    25    1
    27    10    26    1
    28    11    27    1
    29    12    28    1
    30    17    29    1
    31    18    30    1
    32    20    31    1
    33    20    32    1
    34    20    33    1
@<TRIPOS>MOLECULE
../data/bude_mols_rdkit_confs2/molecule_12.pdb
 33 34 0 0 0
SMALL
GASTEIGER

@<TRIPOS>ATOM
      1 C          -5.2110    0.3880   -1.0090 C.3     1  UNL1       -0.0395
      2 C          -3.7270    0.2420   -0.9010 C.ar    1  UNL1       -0.0473
      3 C          -2.8690    0.8900   -1.7600 C.ar    1  UNL1       -0.0551
      4 C          -1.4830    0.7390   -1.6410 C.ar    1  UNL1       -0.0190
      5 C          -0.9770   -0.0680   -0.6520 C.ar    1  UNL1        0.1322
      6 O           0.3800   -0.2290   -0.5200 O.3     1  UNL1       -0.4223
      7 C           1.1030    0.6300    0.2940 C.2     1  UNL1        0.3447
      8 O           0.4520    1.5320    0.8810 O.2     1  UNL1       -0.2445
      9 C           2.5340    0.5250    0.4840 C.ar    1  UNL1        0.0658
     10 C           3.1570    1.4280    1.3140 C.ar    1  UNL1       -0.0473
     11 C           4.5130    1.3280    1.4940 C.ar    1  UNL1       -0.0546
     12 C           5.2400    0.3440    0.8570 C.ar    1  UNL1        0.0156
     13 C           4.6370   -0.5850    0.0110 C.ar    1  UNL1        0.2739
     14 N           5.3840   -1.5970   -0.6450 N.pl3   1  UNL1        0.0796
     15 O           4.7750   -2.3870   -1.3830 O.2     1  UNL1        0.0414
     16 O           6.7350   -1.6450   -0.4250 O.co2   1  UNL1       -0.5760
     17 C           3.2750   -0.4640   -0.1540 C.ar    1  UNL1        0.0295
     18 C          -1.8400   -0.7040    0.1910 C.ar    1  UNL1       -0.0161
     19 C          -3.2240   -0.5630    0.0850 C.ar    1  UNL1       -0.0441
     20 C          -4.1200   -1.2720    1.0220 C.3     1  UNL1       -0.0393
     21 H          -5.4467    1.0437   -1.8210 H       1  UNL1        0.0278
     22 H          -5.5965    0.7957   -0.0979 H       1  UNL1        0.0278
     23 H          -5.6518   -0.5709   -1.1854 H       1  UNL1        0.0278
     24 H          -3.2531    1.4956   -2.5021 H       1  UNL1        0.0621
     25 H          -0.8476    1.2291   -2.2899 H       1  UNL1        0.0654
     26 H           2.6153    2.1654    1.7913 H       1  UNL1        0.0626
     27 H           4.9954    1.9974    2.1138 H       1  UNL1        0.0620
     28 H           6.2592    0.2943    1.0112 H       1  UNL1        0.0685
     29 H           2.7872   -1.1305   -0.7727 H       1  UNL1        0.0693
     30 H          -1.4562   -1.3103    0.9327 H       1  UNL1        0.0657
     31 H          -5.1378   -1.0419    0.7853 H       1  UNL1        0.0278
     32 H          -3.9075   -0.9605    2.0234 H       1  UNL1        0.0278
     33 H          -3.9635   -2.3270    0.9359 H       1  UNL1        0.0278
@<TRIPOS>UNITY_ATOM_ATTR
14 1
charge 1
16 1
charge -1
@<TRIPOS>BOND
     1     1     2    1
     2     2     3   ar
     3     2    19   ar
     4     3     4   ar
     5     4     5   ar
     6     5     6    1
     7     5    18   ar
     8     6     7    1
     9     7     8    2
    10     7     9    1
    11     9    10   ar
    12     9    17   ar
    13    10    11   ar
    14    11    12   ar
    15    12    13   ar
    16    13    14    1
    17    13    17   ar
    18    14    15    2
    19    14    16    1
    20    18    19   ar
    21    19    20    1
    22     1    21    1
    23     1    22    1
    24     1    23    1
    25     3    24    1
    26     4    25    1
    27    10    26    1
    28    11    27    1
    29    12    28    1
    30    17    29    1
    31    18    30    1
    32    20    31    1
    33    20    32    1
    34    20    33    1
@<TRIPOS>MOLECULE
../data/bude_mols_rdkit_confs2/molecule_12.pdb
 33 34 0 0 0
SMALL
GASTEIGER

@<TRIPOS>ATOM
      1 C          -5.1290    1.3950   -0.2770 C.3     1  UNL1       -0.0395
      2 C          -3.6830    1.1180   -0.1930 C.ar    1  UNL1       -0.0473
      3 C          -2.7750    1.7330   -1.0530 C.ar    1  UNL1       -0.0551
      4 C          -1.4280    1.4660   -0.9640 C.ar    1  UNL1       -0.0190
      5 C          -0.9230    0.5750   -0.0130 C.ar    1  UNL1        0.1322
      6 O           0.4240    0.3630    0.0130 O.3     1  UNL1       -0.4223
      7 C           1.0400   -0.6380   -0.7360 C.2     1  UNL1        0.3447
      8 O           0.2530   -1.3280   -1.4360 O.2     1  UNL1       -0.2445
      9 C           2.4750   -0.8710   -0.7150 C.ar    1  UNL1        0.0658
     10 C           2.9790   -1.8900   -1.4960 C.ar    1  UNL1       -0.0473
     11 C           4.3500   -2.1040   -1.4680 C.ar    1  UNL1       -0.0546
     12 C           5.1700   -1.3090   -0.6740 C.ar    1  UNL1        0.0156
     13 C           4.6450   -0.3130    0.0850 C.ar    1  UNL1        0.2739
     14 N           5.4750    0.4930    0.8880 N.pl3   1  UNL1        0.0796
     15 O           6.6970    0.3070    0.9170 O.2     1  UNL1        0.0414
     16 O           4.9190    1.4890    1.6420 O.co2   1  UNL1       -0.5760
     17 C           3.2910   -0.0820    0.0730 C.ar    1  UNL1        0.0295
     18 C          -1.8280   -0.0220    0.8260 C.ar    1  UNL1       -0.0161
     19 C          -3.1790    0.2390    0.7440 C.ar    1  UNL1       -0.0441
     20 C          -4.0770   -0.4510    1.6900 C.3     1  UNL1       -0.0393
     21 H          -5.3124    2.0980   -1.0625 H       1  UNL1        0.0278
     22 H          -5.4688    1.8019    0.6524 H       1  UNL1        0.0278
     23 H          -5.6550    0.4860   -0.4819 H       1  UNL1        0.0278
     24 H          -3.1170    2.3968   -1.7653 H       1  UNL1        0.0621
     25 H          -0.7766    1.9338   -1.6135 H       1  UNL1        0.0654
     26 H           2.3589   -2.4724   -2.0802 H       1  UNL1        0.0626
     27 H           4.7634   -2.8573   -2.0395 H       1  UNL1        0.0620
     28 H           6.1880   -1.4779   -0.6617 H       1  UNL1        0.0685
     29 H           2.8868    0.6741    0.6474 H       1  UNL1        0.0693
     30 H          -1.4881   -0.6858    1.5394 H       1  UNL1        0.0657
     31 H          -5.0874   -0.1504    1.5065 H       1  UNL1        0.0278
     32 H          -3.8048   -0.1938    2.6923 H       1  UNL1        0.0278
     33 H          -3.9900   -1.5091    1.5571 H       1  UNL1        0.0278
@<TRIPOS>UNITY_ATOM_ATTR
14 1
charge 1
16 1
charge -1
@<TRIPOS>BOND
     1     1     2    1
     2     2     3   ar
     3     2    19   ar
     4     3     4   ar
     5     4     5   ar
     6     5     6    1
     7     5    18   ar
     8     6     7    1
     9     7     8    2
    10     7     9    1
    11     9    10   ar
    12     9    17   ar
    13    10    11   ar
    14    11    12   ar
    15    12    13   ar
    16    13    14    1
    17    13    17   ar
    18    14    15    2
    19    14    16    1
    20    18    19   ar
    21    19    20    1
    22     1    21    1
    23     1    22    1
    24     1    23    1
    25     3    24    1
    26     4    25    1
    27    10    26    1
    28    11    27    1
    29    12    28    1
    30    17    29    1
    31    18    30    1
    32    20    31    1
    33    20    32    1
    34    20    33    1
@<TRIPOS>MOLECULE
../data/bude_mols_rdkit_confs2/molecule_12.pdb
 33 34 0 0 0
SMALL
GASTEIGER

@<TRIPOS>ATOM
      1 C          -5.3180    0.5270    0.3520 C.3     1  UNL1       -0.0395
      2 C          -3.8430    0.5790    0.0770 C.ar    1  UNL1       -0.0473
      3 C          -3.1130    1.6510    0.5660 C.ar    1  UNL1       -0.0551
      4 C          -1.7460    1.6790    0.2990 C.ar    1  UNL1       -0.0190
      5 C          -1.1210    0.6890   -0.4210 C.ar    1  UNL1        0.1322
      6 O           0.2380    0.7070   -0.6920 O.3     1  UNL1       -0.4223
      7 C           1.1030    0.1120    0.1910 C.2     1  UNL1        0.3447
      8 O           0.6350   -0.4330    1.2220 O.2     1  UNL1       -0.2445
      9 C           2.5630    0.0860   -0.0210 C.ar    1  UNL1        0.0658
     10 C           3.1390    0.6660   -1.1300 C.ar    1  UNL1       -0.0473
     11 C           4.4960    0.6340   -1.3130 C.ar    1  UNL1       -0.0546
     12 C           5.2980    0.0110   -0.3710 C.ar    1  UNL1        0.0156
     13 C           4.7550   -0.5840    0.7580 C.ar    1  UNL1        0.2739
     14 N           5.5790   -1.2180    1.7170 N.pl3   1  UNL1        0.0796
     15 O           5.0750   -1.7400    2.7130 O.2     1  UNL1        0.0414
     16 O           6.9340   -1.2580    1.5480 O.co2   1  UNL1       -0.5760
     17 C           3.3910   -0.5240    0.8950 C.ar    1  UNL1        0.0295
     18 C          -1.8950   -0.3570   -0.8840 C.ar    1  UNL1       -0.0161
     19 C          -3.2530   -0.4270   -0.6450 C.ar    1  UNL1       -0.0441
     20 C          -3.9980   -1.5910   -1.1850 C.3     1  UNL1       -0.0393
     21 H          -5.6048    1.3852    0.9230 H       1  UNL1        0.0278
     22 H          -5.5469   -0.3610    0.9033 H       1  UNL1        0.0278
     23 H          -5.8535    0.5197   -0.5743 H       1  UNL1        0.0278
     24 H          -3.5664    2.4024    1.1090 H       1  UNL1        0.0621
     25 H          -1.1843    2.4689    0.6534 H       1  UNL1        0.0654
     26 H           2.5408    1.1301   -1.8313 H       1  UNL1        0.0626
     27 H           4.9181    1.0711   -2.1471 H       1  UNL1        0.0620
     28 H           6.3201   -0.0109   -0.5121 H       1  UNL1        0.0685
     29 H           2.9634   -0.9585    1.7277 H       1  UNL1        0.0693
     30 H          -1.4438   -1.1104   -1.4260 H       1  UNL1        0.0657
     31 H          -5.0315   -1.5066   -0.9210 H       1  UNL1        0.0278
     32 H          -3.5971   -2.4934   -0.7728 H       1  UNL1        0.0278
     33 H          -3.9026   -1.6124   -2.2505 H       1  UNL1        0.0278
@<TRIPOS>UNITY_ATOM_ATTR
14 1
charge 1
16 1
charge -1
@<TRIPOS>BOND
     1     1     2    1
     2     2     3   ar
     3     2    19   ar
     4     3     4   ar
     5     4     5   ar
     6     5     6    1
     7     5    18   ar
     8     6     7    1
     9     7     8    2
    10     7     9    1
    11     9    10   ar
    12     9    17   ar
    13    10    11   ar
    14    11    12   ar
    15    12    13   ar
    16    13    14    1
    17    13    17   ar
    18    14    15    2
    19    14    16    1
    20    18    19   ar
    21    19    20    1
    22     1    21    1
    23     1    22    1
    24     1    23    1
    25     3    24    1
    26     4    25    1
    27    10    26    1
    28    11    27    1
    29    12    28    1
    30    17    29    1
    31    18    30    1
    32    20    31    1
    33    20    32    1
    34    20    33    1
