@<TRIPOS>MOLECULE
../data/bude_mols_rdkit_confs2/molecule_24.pdb
 47 50 0 0 0
SMALL
GASTEIGER

@<TRIPOS>ATOM
      1  O1         1.1910    1.9040   -0.0240 O.2     1  UNL1       -0.2684
      2  C1         1.0530    0.7100    0.4820 C.2     1  UNL1        0.2650
      3  N1         1.9120    0.3600    1.5220 N.am    1  UNL1       -0.3059
      4  C2         2.9280    1.2700    2.0070 C.3     1  UNL1        0.0372
      5  C3         4.0940    1.3530    1.1130 C.ar    1  UNL1       -0.0301
      6  C4         4.1500    0.8030   -0.1410 C.ar    1  UNL1       -0.0544
      7  C5         5.2550    0.8850   -0.9650 C.ar    1  UNL1       -0.0261
      8  C6         6.3730    1.5720   -0.4760 C.ar    1  UNL1        0.1234
      9  F1         7.4440    1.6370   -1.3070 F       1  UNL1       -0.2055
     10  C7         6.3530    2.1350    0.7750 C.ar    1  UNL1       -0.0261
     11  C8         5.2390    2.0310    1.5580 C.ar    1  UNL1       -0.0544
     12  C9        -0.0010   -0.0500   -0.1380 C.ar    1  UNL1        0.1535
     13  N2        -1.1830    0.5770   -0.4580 N.ar    1  UNL1       -0.1626
     14  N3        -2.1850   -0.0310   -1.0310 N.ar    1  UNL1       -0.2239
     15  C10       -3.4090    0.6880   -1.3370 C.3     1  UNL1        0.0703
     16  C11       -4.3970    0.6810   -0.2590 C.ar    1  UNL1       -0.0260
     17  C12       -5.3860   -0.2700   -0.1860 C.ar    1  UNL1       -0.0568
     18  C13       -6.3100   -0.2460    0.8650 C.ar    1  UNL1       -0.0614
     19  C14       -6.1990    0.7480    1.8120 C.ar    1  UNL1       -0.0617
     20  C15       -5.2090    1.7070    1.7450 C.ar    1  UNL1       -0.0614
     21  C16       -4.2870    1.6840    0.6980 C.ar    1  UNL1       -0.0568
     22  C17       -2.0860   -1.3270   -1.3330 C.ar    1  UNL1        0.2753
     23  O2        -3.0360   -1.9550   -1.8880 O.2     1  UNL1       -0.2655
     24  C18       -0.9520   -2.0560   -1.0620 C.ar    1  UNL1        0.0503
     25  C19       -0.8530   -3.3890   -1.4040 C.ar    1  UNL1       -0.0487
     26  C20        0.2970   -4.1070   -1.1570 C.ar    1  UNL1       -0.0610
     27  C21        1.3400   -3.4380   -0.5580 C.ar    1  UNL1       -0.0611
     28  C22        1.2670   -2.0990   -0.2030 C.ar    1  UNL1       -0.0516
     29  C23        0.1160   -1.3800   -0.4460 C.ar    1  UNL1        0.0195
     30 H           1.8257   -0.5284    1.9373 H       1  UNL1        0.1494
     31 H           3.2574    0.9337    2.9679 H       1  UNL1        0.0512
     32 H           2.4899    2.2450    2.0559 H       1  UNL1        0.0512
     33 H           3.3194    0.2991   -0.4891 H       1  UNL1        0.0622
     34 H           5.2569    0.4569   -1.9040 H       1  UNL1        0.0646
     35 H           7.1827    2.6388    1.1255 H       1  UNL1        0.0646
     36 H           5.2393    2.4600    2.4966 H       1  UNL1        0.0622
     37 H          -3.8532    0.2405   -2.2015 H       1  UNL1        0.0560
     38 H          -3.1330    1.7100   -1.4928 H       1  UNL1        0.0560
     39 H          -5.4477   -1.0044   -0.9084 H       1  UNL1        0.0621
     40 H          -7.0564   -0.9558    0.9289 H       1  UNL1        0.0618
     41 H          -6.8740    0.7763    2.5922 H       1  UNL1        0.0618
     42 H          -5.1506    2.4405    2.4686 H       1  UNL1        0.0618
     43 H          -3.5411    2.3945    0.6353 H       1  UNL1        0.0621
     44 H          -1.6554   -3.8573   -1.8533 H       1  UNL1        0.0625
     45 H           0.3730   -5.1045   -1.4105 H       1  UNL1        0.0618
     46 H           2.2127   -3.9540   -0.3649 H       1  UNL1        0.0618
     47 H           2.0760   -1.6400    0.2440 H       1  UNL1        0.0624
@<TRIPOS>BOND
     1     1     2    2
     2     2     3   am
     3     2    12    1
     4     3     4    1
     5     4     5    1
     6     5     6   ar
     7     5    11   ar
     8     6     7   ar
     9     7     8   ar
    10     8     9    1
    11     8    10   ar
    12    10    11   ar
    13    12    13   ar
    14    12    29   ar
    15    13    14   ar
    16    14    15    1
    17    14    22   ar
    18    15    16    1
    19    16    17   ar
    20    16    21   ar
    21    17    18   ar
    22    18    19   ar
    23    19    20   ar
    24    20    21   ar
    25    22    23    2
    26    22    24   ar
    27    24    25   ar
    28    24    29   ar
    29    25    26   ar
    30    26    27   ar
    31    27    28   ar
    32    28    29   ar
    33     3    30    1
    34     4    31    1
    35     4    32    1
    36     6    33    1
    37     7    34    1
    38    10    35    1
    39    11    36    1
    40    15    37    1
    41    15    38    1
    42    17    39    1
    43    18    40    1
    44    19    41    1
    45    20    42    1
    46    21    43    1
    47    25    44    1
    48    26    45    1
    49    27    46    1
    50    28    47    1
@<TRIPOS>MOLECULE
../data/bude_mols_rdkit_confs2/molecule_24.pdb
 47 50 0 0 0
SMALL
GASTEIGER

@<TRIPOS>ATOM
      1  O1        -1.3830    1.4590   -0.8840 O.2     1  UNL1       -0.2684
      2  C1        -1.1000    0.6020    0.0460 C.2     1  UNL1        0.2650
      3  N1        -1.9760    0.6540    1.1430 N.am    1  UNL1       -0.3059
      4  C2        -3.1040    1.5480    1.2420 C.3     1  UNL1        0.0372
      5  C3        -4.2640    1.1400    0.4160 C.ar    1  UNL1       -0.0301
      6  C4        -5.4630    1.8410    0.5270 C.ar    1  UNL1       -0.0544
      7  C5        -6.5810    1.5170   -0.2110 C.ar    1  UNL1       -0.0261
      8  C6        -6.5480    0.4680   -1.1010 C.ar    1  UNL1        0.1234
      9  F1        -7.6500    0.1280   -1.8470 F       1  UNL1       -0.2055
     10  C7        -5.3660   -0.2290   -1.2170 C.ar    1  UNL1       -0.0261
     11  C8        -4.2320    0.0920   -0.4750 C.ar    1  UNL1       -0.0544
     12  C9         0.0380   -0.2300   -0.1920 C.ar    1  UNL1        0.1535
     13  N2         1.1260    0.3600   -0.7670 N.ar    1  UNL1       -0.1626
     14  N3         2.2420   -0.2740   -1.0580 N.ar    1  UNL1       -0.2239
     15  C10        3.3630    0.4520   -1.6750 C.3     1  UNL1        0.0703
     16  C11        4.2670    1.0360   -0.6770 C.ar    1  UNL1       -0.0260
     17  C12        5.3730    0.3570   -0.2330 C.ar    1  UNL1       -0.0568
     18  C13        6.2120    0.9380    0.7170 C.ar    1  UNL1       -0.0614
     19  C14        5.9160    2.1920    1.1980 C.ar    1  UNL1       -0.0617
     20  C15        4.8110    2.8780    0.7570 C.ar    1  UNL1       -0.0614
     21  C16        3.9890    2.2900   -0.1840 C.ar    1  UNL1       -0.0568
     22  C17        2.3150   -1.5800   -0.7720 C.ar    1  UNL1        0.2753
     23  O2         3.3990   -2.1840   -1.0560 O.2     1  UNL1       -0.2655
     24  C18        1.2890   -2.2940   -0.1950 C.ar    1  UNL1        0.0503
     25  C19        1.4080   -3.6350    0.0510 C.ar    1  UNL1       -0.0487
     26  C20        0.3310   -4.2840    0.5990 C.ar    1  UNL1       -0.0610
     27  C21       -0.8320   -3.6080    0.8910 C.ar    1  UNL1       -0.0611
     28  C22       -0.9280   -2.2650    0.6370 C.ar    1  UNL1       -0.0516
     29  C23        0.1200   -1.5600    0.0920 C.ar    1  UNL1        0.0195
     30 H          -1.8091    0.0397    1.8940 H       1  UNL1        0.1494
     31 H          -2.7915    2.5217    0.9272 H       1  UNL1        0.0512
     32 H          -3.4264    1.5314    2.2621 H       1  UNL1        0.0512
     33 H          -5.5159    2.6328    1.1868 H       1  UNL1        0.0622
     34 H          -7.4482    2.0644   -0.0954 H       1  UNL1        0.0646
     35 H          -5.3187   -1.0193   -1.8790 H       1  UNL1        0.0646
     36 H          -3.3663   -0.4571   -0.5936 H       1  UNL1        0.0622
     37 H           2.9694    1.2385   -2.2844 H       1  UNL1        0.0560
     38 H           3.9260   -0.2487   -2.2555 H       1  UNL1        0.0560
     39 H           5.5840   -0.5834   -0.6019 H       1  UNL1        0.0621
     40 H           7.0458    0.4327    1.0554 H       1  UNL1        0.0618
     41 H           6.5344    2.6246    1.9019 H       1  UNL1        0.0618
     42 H           4.5981    3.8190    1.1234 H       1  UNL1        0.0618
     43 H           3.1561    2.7973   -0.5215 H       1  UNL1        0.0621
     44 H           2.2799   -4.1416   -0.1687 H       1  UNL1        0.0625
     45 H           0.3936   -5.2952    0.7955 H       1  UNL1        0.0618
     46 H          -1.6326   -4.1133    1.3017 H       1  UNL1        0.0618
     47 H          -1.8064   -1.7712    0.8596 H       1  UNL1        0.0624
@<TRIPOS>BOND
     1     1     2    2
     2     2     3   am
     3     2    12    1
     4     3     4    1
     5     4     5    1
     6     5     6   ar
     7     5    11   ar
     8     6     7   ar
     9     7     8   ar
    10     8     9    1
    11     8    10   ar
    12    10    11   ar
    13    12    13   ar
    14    12    29   ar
    15    13    14   ar
    16    14    15    1
    17    14    22   ar
    18    15    16    1
    19    16    17   ar
    20    16    21   ar
    21    17    18   ar
    22    18    19   ar
    23    19    20   ar
    24    20    21   ar
    25    22    23    2
    26    22    24   ar
    27    24    25   ar
    28    24    29   ar
    29    25    26   ar
    30    26    27   ar
    31    27    28   ar
    32    28    29   ar
    33     3    30    1
    34     4    31    1
    35     4    32    1
    36     6    33    1
    37     7    34    1
    38    10    35    1
    39    11    36    1
    40    15    37    1
    41    15    38    1
    42    17    39    1
    43    18    40    1
    44    19    41    1
    45    20    42    1
    46    21    43    1
    47    25    44    1
    48    26    45    1
    49    27    46    1
    50    28    47    1
@<TRIPOS>MOLECULE
../data/bude_mols_rdkit_confs2/molecule_24.pdb
 47 50 0 0 0
SMALL
GASTEIGER

@<TRIPOS>ATOM
      1  O1         2.3080   -1.5480   -0.5260 O.2     1  UNL1       -0.2684
      2  C1         1.3320   -0.8830   -0.1360 C.2     1  UNL1        0.2650
      3  N1         1.3660   -0.6120    1.2870 N.am    1  UNL1       -0.3059
      4  C2         2.4070   -1.0560    2.1550 C.3     1  UNL1        0.0372
      5  C3         3.6440   -0.2690    2.0640 C.ar    1  UNL1       -0.0301
      6  C4         4.7520   -0.5950    2.8110 C.ar    1  UNL1       -0.0544
      7  C5         5.9300    0.1350    2.7480 C.ar    1  UNL1       -0.0261
      8  C6         6.0080    1.2270    1.9120 C.ar    1  UNL1        0.1234
      9  F1         7.1870    1.9270    1.8730 F       1  UNL1       -0.2055
     10  C7         4.9260    1.5720    1.1610 C.ar    1  UNL1       -0.0261
     11  C8         3.7520    0.8280    1.2370 C.ar    1  UNL1       -0.0544
     12  C9         0.2190   -0.3820   -0.9340 C.ar    1  UNL1        0.1535
     13  N2        -0.6980    0.4140   -0.3370 N.ar    1  UNL1       -0.1626
     14  N3        -1.7520    0.9330   -0.9090 N.ar    1  UNL1       -0.2239
     15  C10       -2.6250    1.7560   -0.1050 C.3     1  UNL1        0.0703
     16  C11       -3.6780    0.9650    0.5650 C.ar    1  UNL1       -0.0260
     17  C12       -3.4110    0.4860    1.8260 C.ar    1  UNL1       -0.0568
     18  C13       -4.3030   -0.2660    2.5570 C.ar    1  UNL1       -0.0614
     19  C14       -5.5260   -0.5520    1.9930 C.ar    1  UNL1       -0.0617
     20  C15       -5.7980   -0.0710    0.7230 C.ar    1  UNL1       -0.0614
     21  C16       -4.9040    0.6820   -0.0070 C.ar    1  UNL1       -0.0568
     22  C17       -2.0120    0.7020   -2.2000 C.ar    1  UNL1        0.2753
     23  O2        -3.0060    1.1720   -2.8030 O.2     1  UNL1       -0.2655
     24  C18       -1.1180   -0.1090   -2.8960 C.ar    1  UNL1        0.0503
     25  C19       -1.3270   -0.3900   -4.2170 C.ar    1  UNL1       -0.0487
     26  C20       -0.4480   -1.1950   -4.9060 C.ar    1  UNL1       -0.0610
     27  C21        0.6460   -1.7250   -4.2810 C.ar    1  UNL1       -0.0611
     28  C22        0.8710   -1.4490   -2.9420 C.ar    1  UNL1       -0.0516
     29  C23        0.0040   -0.6540   -2.2580 C.ar    1  UNL1        0.0195
     30 H           0.6275   -0.0910    1.6775 H       1  UNL1        0.1494
     31 H           2.6370   -2.0720    1.9107 H       1  UNL1        0.0512
     32 H           2.0431   -0.9420    3.1547 H       1  UNL1        0.0512
     33 H           4.7054   -1.4114    3.4405 H       1  UNL1        0.0622
     34 H           6.7420   -0.1381    3.3233 H       1  UNL1        0.0646
     35 H           4.9765    2.3889    0.5325 H       1  UNL1        0.0646
     36 H           2.9425    1.1048    0.6598 H       1  UNL1        0.0622
     37 H          -3.0902    2.4839   -0.7364 H       1  UNL1        0.0560
     38 H          -2.0309    2.2210    0.6538 H       1  UNL1        0.0560
     39 H          -2.4936    0.7016    2.2466 H       1  UNL1        0.0621
     40 H          -4.0617   -0.6057    3.5011 H       1  UNL1        0.0618
     41 H          -6.2248   -1.1125    2.5054 H       1  UNL1        0.0618
     42 H          -6.7154   -0.2871    0.3026 H       1  UNL1        0.0618
     43 H          -5.1424    1.0238   -0.9511 H       1  UNL1        0.0621
     44 H          -2.1489    0.0037   -4.7011 H       1  UNL1        0.0625
     45 H          -0.6166   -1.4001   -5.9033 H       1  UNL1        0.0618
     46 H           1.3009   -2.3275   -4.8037 H       1  UNL1        0.0618
     47 H           1.6951   -1.8459   -2.4640 H       1  UNL1        0.0624
@<TRIPOS>BOND
     1     1     2    2
     2     2     3   am
     3     2    12    1
     4     3     4    1
     5     4     5    1
     6     5     6   ar
     7     5    11   ar
     8     6     7   ar
     9     7     8   ar
    10     8     9    1
    11     8    10   ar
    12    10    11   ar
    13    12    13   ar
    14    12    29   ar
    15    13    14   ar
    16    14    15    1
    17    14    22   ar
    18    15    16    1
    19    16    17   ar
    20    16    21   ar
    21    17    18   ar
    22    18    19   ar
    23    19    20   ar
    24    20    21   ar
    25    22    23    2
    26    22    24   ar
    27    24    25   ar
    28    24    29   ar
    29    25    26   ar
    30    26    27   ar
    31    27    28   ar
    32    28    29   ar
    33     3    30    1
    34     4    31    1
    35     4    32    1
    36     6    33    1
    37     7    34    1
    38    10    35    1
    39    11    36    1
    40    15    37    1
    41    15    38    1
    42    17    39    1
    43    18    40    1
    44    19    41    1
    45    20    42    1
    46    21    43    1
    47    25    44    1
    48    26    45    1
    49    27    46    1
    50    28    47    1
@<TRIPOS>MOLECULE
../data/bude_mols_rdkit_confs2/molecule_24.pdb
 47 50 0 0 0
SMALL
GASTEIGER

@<TRIPOS>ATOM
      1  O1         2.4370   -1.4360   -1.1680 O.2     1  UNL1       -0.2684
      2  C1         1.5880   -1.2620   -0.2980 C.2     1  UNL1        0.2650
      3  N1         2.1390   -0.7920    0.9590 N.am    1  UNL1       -0.3059
      4  C2         3.5440   -0.5860    1.0620 C.3     1  UNL1        0.0372
      5  C3         4.0270    0.6550    0.4090 C.ar    1  UNL1       -0.0301
      6  C4         3.8150    1.8810    1.0000 C.ar    1  UNL1       -0.0544
      7  C5         4.2480    3.0660    0.4330 C.ar    1  UNL1       -0.0261
      8  C6         4.9210    3.0600   -0.7680 C.ar    1  UNL1        0.1234
      9  F1         5.3580    4.2290   -1.3440 F       1  UNL1       -0.2055
     10  C7         5.1430    1.8450   -1.3730 C.ar    1  UNL1       -0.0261
     11  C8         4.7020    0.6680   -0.7910 C.ar    1  UNL1       -0.0544
     12  C9         0.1490   -1.4650   -0.3860 C.ar    1  UNL1        0.1535
     13  N2        -0.6140   -1.2200    0.7200 N.ar    1  UNL1       -0.1626
     14  N3        -1.9210   -1.3850    0.7040 N.ar    1  UNL1       -0.2239
     15  C10       -2.7320   -1.1150    1.8970 C.3     1  UNL1        0.0703
     16  C11       -3.1670    0.2990    1.9460 C.ar    1  UNL1       -0.0260
     17  C12       -2.3560    1.3050    2.4630 C.ar    1  UNL1       -0.0568
     18  C13       -2.7810    2.6160    2.5080 C.ar    1  UNL1       -0.0614
     19  C14       -4.0300    2.9490    2.0340 C.ar    1  UNL1       -0.0617
     20  C15       -4.8680    1.9680    1.5090 C.ar    1  UNL1       -0.0614
     21  C16       -4.4050    0.6470    1.4790 C.ar    1  UNL1       -0.0568
     22  C17       -2.5740   -1.8000   -0.3910 C.ar    1  UNL1        0.2753
     23  O2        -3.8190   -1.9670   -0.4380 O.2     1  UNL1       -0.2655
     24  C18       -1.8750   -2.0700   -1.5550 C.ar    1  UNL1        0.0503
     25  C19       -2.5510   -2.4950   -2.6770 C.ar    1  UNL1       -0.0487
     26  C20       -1.8250   -2.7540   -3.8200 C.ar    1  UNL1       -0.0610
     27  C21       -0.4640   -2.5830   -3.8040 C.ar    1  UNL1       -0.0611
     28  C22        0.2110   -2.1530   -2.6650 C.ar    1  UNL1       -0.0516
     29  C23       -0.4830   -1.8890   -1.5180 C.ar    1  UNL1        0.0195
     30 H           1.5505   -0.6182    1.7289 H       1  UNL1        0.1494
     31 H           4.0392   -1.4186    0.6077 H       1  UNL1        0.0512
     32 H           3.7647   -0.4902    2.1046 H       1  UNL1        0.0512
     33 H           3.3134    1.9168    1.9012 H       1  UNL1        0.0622
     34 H           4.0653    3.9608    0.9136 H       1  UNL1        0.0646
     35 H           5.6455    1.8097   -2.2737 H       1  UNL1        0.0646
     36 H           4.8850   -0.2267   -1.2716 H       1  UNL1        0.0622
     37 H          -2.1508   -1.3308    2.7691 H       1  UNL1        0.0560
     38 H          -3.6038   -1.7343    1.8587 H       1  UNL1        0.0560
     39 H          -1.4179    1.0650    2.8198 H       1  UNL1        0.0621
     40 H          -2.1639    3.3464    2.8963 H       1  UNL1        0.0618
     41 H          -4.3470    3.9305    2.0678 H       1  UNL1        0.0618
     42 H          -5.8057    2.2086    1.1515 H       1  UNL1        0.0618
     43 H          -5.0174   -0.0880    1.0921 H       1  UNL1        0.0621
     44 H          -3.5757   -2.6166   -2.6625 H       1  UNL1        0.0625
     45 H          -2.3004   -3.0732   -4.6786 H       1  UNL1        0.0618
     46 H           0.0754   -2.7789   -4.6617 H       1  UNL1        0.0618
     47 H           1.2358   -2.0336   -2.6869 H       1  UNL1        0.0624
@<TRIPOS>BOND
     1     1     2    2
     2     2     3   am
     3     2    12    1
     4     3     4    1
     5     4     5    1
     6     5     6   ar
     7     5    11   ar
     8     6     7   ar
     9     7     8   ar
    10     8     9    1
    11     8    10   ar
    12    10    11   ar
    13    12    13   ar
    14    12    29   ar
    15    13    14   ar
    16    14    15    1
    17    14    22   ar
    18    15    16    1
    19    16    17   ar
    20    16    21   ar
    21    17    18   ar
    22    18    19   ar
    23    19    20   ar
    24    20    21   ar
    25    22    23    2
    26    22    24   ar
    27    24    25   ar
    28    24    29   ar
    29    25    26   ar
    30    26    27   ar
    31    27    28   ar
    32    28    29   ar
    33     3    30    1
    34     4    31    1
    35     4    32    1
    36     6    33    1
    37     7    34    1
    38    10    35    1
    39    11    36    1
    40    15    37    1
    41    15    38    1
    42    17    39    1
    43    18    40    1
    44    19    41    1
    45    20    42    1
    46    21    43    1
    47    25    44    1
    48    26    45    1
    49    27    46    1
    50    28    47    1
@<TRIPOS>MOLECULE
../data/bude_mols_rdkit_confs2/molecule_24.pdb
 47 50 0 0 0
SMALL
GASTEIGER

@<TRIPOS>ATOM
      1  O1         1.1010    1.5160   -1.8870 O.2     1  UNL1       -0.2684
      2  C1         1.0220    0.6120   -0.9510 C.2     1  UNL1        0.2650
      3  N1         2.1110    0.5970   -0.0660 N.am    1  UNL1       -0.3059
      4  C2         3.1920    1.5600   -0.3210 C.3     1  UNL1        0.0372
      5  C3         4.4410    1.2700    0.3500 C.ar    1  UNL1       -0.0301
      6  C4         4.8270    1.9700    1.4710 C.ar    1  UNL1       -0.0544
      7  C5         6.0330    1.7090    2.1220 C.ar    1  UNL1       -0.0261
      8  C6         6.8840    0.7190    1.6440 C.ar    1  UNL1        0.1234
      9  F1         8.0540    0.4920    2.2990 F       1  UNL1       -0.2055
     10  C7         6.5060    0.0150    0.5230 C.ar    1  UNL1       -0.0261
     11  C8         5.2980    0.2930   -0.1090 C.ar    1  UNL1       -0.0544
     12  C9        -0.1560   -0.2230   -0.9580 C.ar    1  UNL1        0.1535
     13  N2        -1.3500    0.3710   -1.2720 N.ar    1  UNL1       -0.1626
     14  N3        -2.4930   -0.2310   -1.3670 N.ar    1  UNL1       -0.2239
     15  C10       -3.7390    0.4630   -1.7210 C.3     1  UNL1        0.0703
     16  C11       -4.4930    0.9380   -0.5480 C.ar    1  UNL1       -0.0260
     17  C12       -4.2340    2.1800    0.0240 C.ar    1  UNL1       -0.0568
     18  C13       -4.9260    2.6500    1.1160 C.ar    1  UNL1       -0.0614
     19  C14       -5.9150    1.8530    1.6590 C.ar    1  UNL1       -0.0617
     20  C15       -6.2000    0.6080    1.1140 C.ar    1  UNL1       -0.0614
     21  C16       -5.4990    0.1600    0.0260 C.ar    1  UNL1       -0.0568
     22  C17       -2.5220   -1.5540   -1.1390 C.ar    1  UNL1        0.2753
     23  O2        -3.6120   -2.1640   -1.2250 O.2     1  UNL1       -0.2655
     24  C18       -1.3610   -2.2290   -0.8180 C.ar    1  UNL1        0.0503
     25  C19       -1.3970   -3.6020   -0.6060 C.ar    1  UNL1       -0.0487
     26  C20       -0.2540   -4.3040   -0.3080 C.ar    1  UNL1       -0.0610
     27  C21        0.9540   -3.6390   -0.2160 C.ar    1  UNL1       -0.0611
     28  C22        1.0140   -2.2670   -0.4240 C.ar    1  UNL1       -0.0516
     29  C23       -0.1350   -1.5710   -0.7200 C.ar    1  UNL1        0.0195
     30 H           2.1493   -0.0304    0.6917 H       1  UNL1        0.1494
     31 H           2.8592    2.5250   -0.0002 H       1  UNL1        0.0512
     32 H           3.3972    1.5081   -1.3699 H       1  UNL1        0.0512
     33 H           4.2072    2.7081    1.8398 H       1  UNL1        0.0622
     34 H           6.2939    2.2519    2.9600 H       1  UNL1        0.0646
     35 H           7.1224   -0.7235    0.1491 H       1  UNL1        0.0646
     36 H           5.0357   -0.2490   -0.9471 H       1  UNL1        0.0622
     37 H          -4.3590   -0.2120   -2.2731 H       1  UNL1        0.0560
     38 H          -3.4704    1.3244   -2.2961 H       1  UNL1        0.0560
     39 H          -3.4945    2.7710   -0.3868 H       1  UNL1        0.0621
     40 H          -4.7116    3.5753    1.5196 H       1  UNL1        0.0618
     41 H          -6.4474    2.1862    2.4779 H       1  UNL1        0.0618
     42 H          -6.9400    0.0203    1.5288 H       1  UNL1        0.0618
     43 H          -5.7178   -0.7655   -0.3747 H       1  UNL1        0.0621
     44 H          -2.2970   -4.1025   -0.6735 H       1  UNL1        0.0625
     45 H          -0.2974   -5.3235   -0.1535 H       1  UNL1        0.0618
     46 H           1.8141   -4.1634    0.0079 H       1  UNL1        0.0618
     47 H           1.9169   -1.7718   -0.3567 H       1  UNL1        0.0624
@<TRIPOS>BOND
     1     1     2    2
     2     2     3   am
     3     2    12    1
     4     3     4    1
     5     4     5    1
     6     5     6   ar
     7     5    11   ar
     8     6     7   ar
     9     7     8   ar
    10     8     9    1
    11     8    10   ar
    12    10    11   ar
    13    12    13   ar
    14    12    29   ar
    15    13    14   ar
    16    14    15    1
    17    14    22   ar
    18    15    16    1
    19    16    17   ar
    20    16    21   ar
    21    17    18   ar
    22    18    19   ar
    23    19    20   ar
    24    20    21   ar
    25    22    23    2
    26    22    24   ar
    27    24    25   ar
    28    24    29   ar
    29    25    26   ar
    30    26    27   ar
    31    27    28   ar
    32    28    29   ar
    33     3    30    1
    34     4    31    1
    35     4    32    1
    36     6    33    1
    37     7    34    1
    38    10    35    1
    39    11    36    1
    40    15    37    1
    41    15    38    1
    42    17    39    1
    43    18    40    1
    44    19    41    1
    45    20    42    1
    46    21    43    1
    47    25    44    1
    48    26    45    1
    49    27    46    1
    50    28    47    1
@<TRIPOS>MOLECULE
../data/bude_mols_rdkit_confs2/molecule_24.pdb
 47 50 0 0 0
SMALL
GASTEIGER

@<TRIPOS>ATOM
      1  O1         0.6940    1.1970   -1.7020 O.2     1  UNL1       -0.2684
      2  C1         0.9390    0.3700   -0.7610 C.2     1  UNL1        0.2650
      3  N1         2.2880    0.0180   -0.5460 N.am    1  UNL1       -0.3059
      4  C2         3.2970    0.5920   -1.4170 C.3     1  UNL1        0.0372
      5  C3         4.6400    0.5570   -0.8350 C.ar    1  UNL1       -0.0301
      6  C4         5.7280    0.6930   -1.6750 C.ar    1  UNL1       -0.0544
      7  C5         7.0270    0.6710   -1.2010 C.ar    1  UNL1       -0.0261
      8  C6         7.2740    0.5110    0.1480 C.ar    1  UNL1        0.1234
      9  F1         8.5690    0.4910    0.6010 F       1  UNL1       -0.2055
     10  C7         6.2000    0.3750    0.9950 C.ar    1  UNL1       -0.0261
     11  C8         4.9080    0.4000    0.4990 C.ar    1  UNL1       -0.0544
     12  C9        -0.1940   -0.1330    0.0180 C.ar    1  UNL1        0.1535
     13  N2        -1.1560    0.7250    0.4450 N.ar    1  UNL1       -0.1626
     14  N3        -2.2110    0.3790    1.1470 N.ar    1  UNL1       -0.2239
     15  C10       -3.1920    1.3940    1.5660 C.3     1  UNL1        0.0703
     16  C11       -4.2810    1.5770    0.6080 C.ar    1  UNL1       -0.0260
     17  C12       -5.4710    0.8970    0.8040 C.ar    1  UNL1       -0.0568
     18  C13       -6.5360    1.0260   -0.0750 C.ar    1  UNL1       -0.0614
     19  C14       -6.4290    1.8450   -1.1720 C.ar    1  UNL1       -0.0617
     20  C15       -5.2460    2.5300   -1.3780 C.ar    1  UNL1       -0.0614
     21  C16       -4.1770    2.3990   -0.4960 C.ar    1  UNL1       -0.0568
     22  C17       -2.4200   -0.8930    1.5050 C.ar    1  UNL1        0.2753
     23  O2        -3.4270   -1.2730    2.1870 O.2     1  UNL1       -0.2655
     24  C18       -1.4780   -1.8420    1.1030 C.ar    1  UNL1        0.0503
     25  C19       -1.6980   -3.1590    1.4360 C.ar    1  UNL1       -0.0487
     26  C20       -0.7900   -4.1030    1.0130 C.ar    1  UNL1       -0.0610
     27  C21        0.3090   -3.7360    0.2740 C.ar    1  UNL1       -0.0611
     28  C22        0.5420   -2.4090   -0.0680 C.ar    1  UNL1       -0.0516
     29  C23       -0.3590   -1.4590    0.3540 C.ar    1  UNL1        0.0195
     30 H           2.5387   -0.6016    0.1768 H       1  UNL1        0.1494
     31 H           3.0373    1.6110   -1.6149 H       1  UNL1        0.0512
     32 H           3.3198    0.0054   -2.3116 H       1  UNL1        0.0512
     33 H           5.5667    0.8147   -2.6870 H       1  UNL1        0.0622
     34 H           7.8155    0.7747   -1.8587 H       1  UNL1        0.0646
     35 H           6.3580    0.2534    2.0076 H       1  UNL1        0.0646
     36 H           4.1196    0.2968    1.1569 H       1  UNL1        0.0622
     37 H          -2.6841    2.3282    1.6851 H       1  UNL1        0.0560
     38 H          -3.6293    1.0528    2.4810 H       1  UNL1        0.0560
     39 H          -5.5679    0.2787    1.6246 H       1  UNL1        0.0621
     40 H          -7.4106    0.5055    0.0957 H       1  UNL1        0.0618
     41 H          -7.2171    1.9473   -1.8304 H       1  UNL1        0.0618
     42 H          -5.1539    3.1485   -2.1990 H       1  UNL1        0.0618
     43 H          -3.3024    2.9190   -0.6684 H       1  UNL1        0.0621
     44 H          -2.5246   -3.4325    1.9900 H       1  UNL1        0.0625
     45 H          -0.9359   -5.0960    1.2531 H       1  UNL1        0.0618
     46 H           0.9757   -4.4612   -0.0337 H       1  UNL1        0.0618
     47 H           1.3697   -2.1433   -0.6242 H       1  UNL1        0.0624
@<TRIPOS>BOND
     1     1     2    2
     2     2     3   am
     3     2    12    1
     4     3     4    1
     5     4     5    1
     6     5     6   ar
     7     5    11   ar
     8     6     7   ar
     9     7     8   ar
    10     8     9    1
    11     8    10   ar
    12    10    11   ar
    13    12    13   ar
    14    12    29   ar
    15    13    14   ar
    16    14    15    1
    17    14    22   ar
    18    15    16    1
    19    16    17   ar
    20    16    21   ar
    21    17    18   ar
    22    18    19   ar
    23    19    20   ar
    24    20    21   ar
    25    22    23    2
    26    22    24   ar
    27    24    25   ar
    28    24    29   ar
    29    25    26   ar
    30    26    27   ar
    31    27    28   ar
    32    28    29   ar
    33     3    30    1
    34     4    31    1
    35     4    32    1
    36     6    33    1
    37     7    34    1
    38    10    35    1
    39    11    36    1
    40    15    37    1
    41    15    38    1
    42    17    39    1
    43    18    40    1
    44    19    41    1
    45    20    42    1
    46    21    43    1
    47    25    44    1
    48    26    45    1
    49    27    46    1
    50    28    47    1
@<TRIPOS>MOLECULE
../data/bude_mols_rdkit_confs2/molecule_24.pdb
 47 50 0 0 0
SMALL
GASTEIGER

@<TRIPOS>ATOM
      1  O1         2.6520    0.0310   -1.5460 O.2     1  UNL1       -0.2684
      2  C1         1.7140    0.6240   -0.9880 C.2     1  UNL1        0.2650
      3  N1         2.0650    1.3370    0.2300 N.am    1  UNL1       -0.3059
      4  C2         3.4370    1.3290    0.7320 C.3     1  UNL1        0.0372
      5  C3         3.7610    0.0550    1.3970 C.ar    1  UNL1       -0.0301
      6  C4         3.2790   -0.1430    2.6800 C.ar    1  UNL1       -0.0544
      7  C5         3.5840   -1.3330    3.3030 C.ar    1  UNL1       -0.0261
      8  C6         4.3410   -2.3170    2.7020 C.ar    1  UNL1        0.1234
      9  F1         4.6050   -3.4620    3.3680 F       1  UNL1       -0.2055
     10  C7         4.8030   -2.0900    1.4310 C.ar    1  UNL1       -0.0261
     11  C8         4.5090   -0.9010    0.7850 C.ar    1  UNL1       -0.0544
     12  C9         0.3280    0.6940   -1.3930 C.ar    1  UNL1        0.1535
     13  N2        -0.5750    1.3310   -0.5830 N.ar    1  UNL1       -0.1626
     14  N3        -1.8480    1.4470   -0.8680 N.ar    1  UNL1       -0.2239
     15  C10       -2.7220    2.1450    0.0720 C.3     1  UNL1        0.0703
     16  C11       -3.2980    1.2380    1.0700 C.ar    1  UNL1       -0.0260
     17  C12       -4.4930    0.6110    0.8550 C.ar    1  UNL1       -0.0568
     18  C13       -5.0010   -0.2310    1.8070 C.ar    1  UNL1       -0.0614
     19  C14       -4.3030   -0.4370    2.9720 C.ar    1  UNL1       -0.0617
     20  C15       -3.0960    0.1680    3.2410 C.ar    1  UNL1       -0.0614
     21  C16       -2.6220    1.0140    2.2430 C.ar    1  UNL1       -0.0568
     22  C17       -2.2740    0.9080   -2.0180 C.ar    1  UNL1        0.2753
     23  O2        -3.4870    1.0120   -2.3010 O.2     1  UNL1       -0.2655
     24  C18       -1.4360    0.2500   -2.8930 C.ar    1  UNL1        0.0503
     25  C19       -1.8880   -0.2980   -4.0750 C.ar    1  UNL1       -0.0487
     26  C20       -1.0710   -0.9600   -4.9740 C.ar    1  UNL1       -0.0610
     27  C21        0.2690   -1.0690   -4.6510 C.ar    1  UNL1       -0.0611
     28  C22        0.7540   -0.5230   -3.4570 C.ar    1  UNL1       -0.0516
     29  C23       -0.0820    0.1320   -2.5800 C.ar    1  UNL1        0.0195
     30 H           1.3699    1.8309    0.7220 H       1  UNL1        0.1494
     31 H           3.5550    2.1276    1.4342 H       1  UNL1        0.0512
     32 H           4.0994    1.4518   -0.0993 H       1  UNL1        0.0512
     33 H           2.7106    0.5766    3.1533 H       1  UNL1        0.0622
     34 H           3.2314   -1.4951    4.2593 H       1  UNL1        0.0646
     35 H           5.3715   -2.8075    0.9545 H       1  UNL1        0.0646
     36 H           4.8615   -0.7389   -0.1713 H       1  UNL1        0.0622
     37 H          -3.5178    2.6062   -0.4747 H       1  UNL1        0.0560
     38 H          -2.1331    2.8727    0.5902 H       1  UNL1        0.0560
     39 H          -5.0111    0.7719   -0.0229 H       1  UNL1        0.0621
     40 H          -5.9027   -0.7080    1.6506 H       1  UNL1        0.0618
     41 H          -4.7019   -1.0749    3.6784 H       1  UNL1        0.0618
     42 H          -2.5798    0.0058    4.1197 H       1  UNL1        0.0618
     43 H          -1.7211    1.4948    2.3918 H       1  UNL1        0.0621
     44 H          -2.8910   -0.2094   -4.3014 H       1  UNL1        0.0625
     45 H          -1.4463   -1.3563   -5.8499 H       1  UNL1        0.0618
     46 H           0.9144   -1.5551   -5.2931 H       1  UNL1        0.0618
     47 H           1.7566   -0.6129   -3.2295 H       1  UNL1        0.0624
@<TRIPOS>BOND
     1     1     2    2
     2     2     3   am
     3     2    12    1
     4     3     4    1
     5     4     5    1
     6     5     6   ar
     7     5    11   ar
     8     6     7   ar
     9     7     8   ar
    10     8     9    1
    11     8    10   ar
    12    10    11   ar
    13    12    13   ar
    14    12    29   ar
    15    13    14   ar
    16    14    15    1
    17    14    22   ar
    18    15    16    1
    19    16    17   ar
    20    16    21   ar
    21    17    18   ar
    22    18    19   ar
    23    19    20   ar
    24    20    21   ar
    25    22    23    2
    26    22    24   ar
    27    24    25   ar
    28    24    29   ar
    29    25    26   ar
    30    26    27   ar
    31    27    28   ar
    32    28    29   ar
    33     3    30    1
    34     4    31    1
    35     4    32    1
    36     6    33    1
    37     7    34    1
    38    10    35    1
    39    11    36    1
    40    15    37    1
    41    15    38    1
    42    17    39    1
    43    18    40    1
    44    19    41    1
    45    20    42    1
    46    21    43    1
    47    25    44    1
    48    26    45    1
    49    27    46    1
    50    28    47    1
@<TRIPOS>MOLECULE
../data/bude_mols_rdkit_confs2/molecule_24.pdb
 47 50 0 0 0
SMALL
GASTEIGER

@<TRIPOS>ATOM
      1  O1         0.8390    1.0450   -1.6770 O.2     1  UNL1       -0.2684
      2  C1         1.0510    0.1730   -0.7630 C.2     1  UNL1        0.2650
      3  N1         2.3750   -0.3280   -0.6130 N.am    1  UNL1       -0.3059
      4  C2         3.4000    0.1630   -1.5390 C.3     1  UNL1        0.0372
      5  C3         4.6030    0.6790   -0.8070 C.ar    1  UNL1       -0.0301
      6  C4         4.6160    0.7740    0.5570 C.ar    1  UNL1       -0.0544
      7  C5         5.8160    1.1500    1.1680 C.ar    1  UNL1       -0.0261
      8  C6         6.9450    1.4220    0.4400 C.ar    1  UNL1        0.1234
      9  F1         8.1330    1.7770    1.0260 F       1  UNL1       -0.2055
     10  C7         6.8900    1.3180   -0.9320 C.ar    1  UNL1       -0.0261
     11  C8         5.7260    0.9490   -1.5540 C.ar    1  UNL1       -0.0544
     12  C9        -0.1060   -0.2130    0.0290 C.ar    1  UNL1        0.1535
     13  N2        -1.0740    0.7090    0.3490 N.ar    1  UNL1       -0.1626
     14  N3        -2.1330    0.4410    1.0560 N.ar    1  UNL1       -0.2239
     15  C10       -3.2120    1.3680    1.3810 C.3     1  UNL1        0.0703
     16  C11       -4.2840    1.3740    0.3600 C.ar    1  UNL1       -0.0260
     17  C12       -4.2060    2.2090   -0.7340 C.ar    1  UNL1       -0.0568
     18  C13       -5.1760    2.2520   -1.7020 C.ar    1  UNL1       -0.0614
     19  C14       -6.2910    1.4530   -1.6350 C.ar    1  UNL1       -0.0617
     20  C15       -6.4010    0.5990   -0.5470 C.ar    1  UNL1       -0.0614
     21  C16       -5.4030    0.5740    0.4260 C.ar    1  UNL1       -0.0568
     22  C17       -2.3110   -0.8280    1.5210 C.ar    1  UNL1        0.2753
     23  O2        -3.2990   -1.1360    2.2050 O.2     1  UNL1       -0.2655
     24  C18       -1.3890   -1.8460    1.2500 C.ar    1  UNL1        0.0503
     25  C19       -1.6640   -3.1190    1.7200 C.ar    1  UNL1       -0.0487
     26  C20       -0.7530   -4.1280    1.3840 C.ar    1  UNL1       -0.0610
     27  C21        0.3200   -3.7930    0.6320 C.ar    1  UNL1       -0.0611
     28  C22        0.6020   -2.5100    0.1580 C.ar    1  UNL1       -0.0516
     29  C23       -0.2840   -1.4970    0.4870 C.ar    1  UNL1        0.0195
     30 H           2.5949   -0.9822    0.0890 H       1  UNL1        0.1494
     31 H           2.9857    0.9546   -2.1278 H       1  UNL1        0.0512
     32 H           3.7095   -0.6523   -2.1590 H       1  UNL1        0.0512
     33 H           3.7709    0.5754    1.1151 H       1  UNL1        0.0622
     34 H           5.8528    1.2249    2.1966 H       1  UNL1        0.0646
     35 H           7.7308    1.5193   -1.4955 H       1  UNL1        0.0646
     36 H           5.6920    0.8737   -2.5827 H       1  UNL1        0.0622
     37 H          -2.8050    2.3547    1.4565 H       1  UNL1        0.0560
     38 H          -3.6464    1.0486    2.3052 H       1  UNL1        0.0560
     39 H          -3.3845    2.8265   -0.8282 H       1  UNL1        0.0621
     40 H          -5.0659    2.8990   -2.4984 H       1  UNL1        0.0618
     41 H          -7.0190    1.4865   -2.3657 H       1  UNL1        0.0618
     42 H          -7.2229   -0.0187   -0.4579 H       1  UNL1        0.0618
     43 H          -5.5067   -0.0688    1.2267 H       1  UNL1        0.0621
     44 H          -2.5010   -3.3150    2.2911 H       1  UNL1        0.0625
     45 H          -0.8963   -5.0995    1.7012 H       1  UNL1        0.0618
     46 H           0.9832   -4.5454    0.3891 H       1  UNL1        0.0618
     47 H           1.4391   -2.3234   -0.4159 H       1  UNL1        0.0624
@<TRIPOS>BOND
     1     1     2    2
     2     2     3   am
     3     2    12    1
     4     3     4    1
     5     4     5    1
     6     5     6   ar
     7     5    11   ar
     8     6     7   ar
     9     7     8   ar
    10     8     9    1
    11     8    10   ar
    12    10    11   ar
    13    12    13   ar
    14    12    29   ar
    15    13    14   ar
    16    14    15    1
    17    14    22   ar
    18    15    16    1
    19    16    17   ar
    20    16    21   ar
    21    17    18   ar
    22    18    19   ar
    23    19    20   ar
    24    20    21   ar
    25    22    23    2
    26    22    24   ar
    27    24    25   ar
    28    24    29   ar
    29    25    26   ar
    30    26    27   ar
    31    27    28   ar
    32    28    29   ar
    33     3    30    1
    34     4    31    1
    35     4    32    1
    36     6    33    1
    37     7    34    1
    38    10    35    1
    39    11    36    1
    40    15    37    1
    41    15    38    1
    42    17    39    1
    43    18    40    1
    44    19    41    1
    45    20    42    1
    46    21    43    1
    47    25    44    1
    48    26    45    1
    49    27    46    1
    50    28    47    1
@<TRIPOS>MOLECULE
../data/bude_mols_rdkit_confs2/molecule_24.pdb
 47 50 0 0 0
SMALL
GASTEIGER

@<TRIPOS>ATOM
      1  O1        -1.8620   -2.5050   -1.1820 O.2     1  UNL1       -0.2684
      2  C1        -1.3400   -1.5500   -0.5890 C.2     1  UNL1        0.2650
      3  N1        -2.1630   -0.3520   -0.5860 N.am    1  UNL1       -0.3059
      4  C2        -3.4510   -0.3760   -1.2490 C.3     1  UNL1        0.0372
      5  C3        -4.2780    0.7720   -0.8430 C.ar    1  UNL1       -0.0301
      6  C4        -4.1070    2.0340   -1.4010 C.ar    1  UNL1       -0.0544
      7  C5        -4.8830    3.1250   -1.0640 C.ar    1  UNL1       -0.0261
      8  C6        -5.8740    2.9180   -0.1180 C.ar    1  UNL1        0.1234
      9  F1        -6.6700    3.9480    0.2550 F       1  UNL1       -0.2055
     10  C7        -6.0710    1.6700    0.4610 C.ar    1  UNL1       -0.0261
     11  C8        -5.2670    0.6240    0.0850 C.ar    1  UNL1       -0.0544
     12  C9        -0.0370   -1.5380    0.0670 C.ar    1  UNL1        0.1535
     13  N2         0.4790   -0.3440    0.4920 N.ar    1  UNL1       -0.1626
     14  N3         1.6160   -0.1930    1.1020 N.ar    1  UNL1       -0.2239
     15  C10        2.2210    1.0280    1.5630 C.3     1  UNL1        0.0703
     16  C11        3.1350    1.6510    0.5720 C.ar    1  UNL1       -0.0260
     17  C12        3.8060    0.9880   -0.4060 C.ar    1  UNL1       -0.0568
     18  C13        4.6770    1.6700   -1.2420 C.ar    1  UNL1       -0.0614
     19  C14        4.9180    3.0190   -1.1450 C.ar    1  UNL1       -0.0617
     20  C15        4.2320    3.6880   -0.1480 C.ar    1  UNL1       -0.0614
     21  C16        3.3630    3.0120    0.6840 C.ar    1  UNL1       -0.0568
     22  C17        2.3260   -1.3390    1.3190 C.ar    1  UNL1        0.2753
     23  O2         3.4570   -1.2860    1.9140 O.2     1  UNL1       -0.2655
     24  C18        1.8990   -2.5830    0.9310 C.ar    1  UNL1        0.0503
     25  C19        2.6750   -3.7130    1.1750 C.ar    1  UNL1       -0.0487
     26  C20        2.2550   -4.9550    0.7850 C.ar    1  UNL1       -0.0610
     27  C21        1.0390   -5.0350    0.1450 C.ar    1  UNL1       -0.0611
     28  C22        0.2290   -3.9350   -0.1190 C.ar    1  UNL1       -0.0516
     29  C23        0.6720   -2.7020    0.2800 C.ar    1  UNL1        0.0195
     30 H          -1.8487    0.4666   -0.1384 H       1  UNL1        0.1494
     31 H          -3.9597   -1.2815   -0.9915 H       1  UNL1        0.0512
     32 H          -3.2902   -0.3220   -2.3055 H       1  UNL1        0.0512
     33 H          -3.3616    2.1617   -2.1032 H       1  UNL1        0.0622
     34 H          -4.7322    4.0501   -1.4959 H       1  UNL1        0.0646
     35 H          -6.8128    1.5319    1.1650 H       1  UNL1        0.0646
     36 H          -5.4146   -0.3017    0.5167 H       1  UNL1        0.0622
     37 H           2.7794    0.8146    2.4504 H       1  UNL1        0.0560
     38 H           1.4275    1.7241    1.7383 H       1  UNL1        0.0560
     39 H           3.6668   -0.0274   -0.5271 H       1  UNL1        0.0621
     40 H           5.1698    1.1365   -1.9752 H       1  UNL1        0.0618
     41 H           5.5722    3.5043   -1.7786 H       1  UNL1        0.0618
     42 H           4.3713    4.7031   -0.0249 H       1  UNL1        0.0618
     43 H           2.8646    3.5406    1.4169 H       1  UNL1        0.0621
     44 H           3.5815   -3.6119    1.6578 H       1  UNL1        0.0625
     45 H           2.8256   -5.7963    0.9630 H       1  UNL1        0.0618
     46 H           0.7089   -5.9651   -0.1566 H       1  UNL1        0.0618
     47 H          -0.6772   -4.0447   -0.6004 H       1  UNL1        0.0624
@<TRIPOS>BOND
     1     1     2    2
     2     2     3   am
     3     2    12    1
     4     3     4    1
     5     4     5    1
     6     5     6   ar
     7     5    11   ar
     8     6     7   ar
     9     7     8   ar
    10     8     9    1
    11     8    10   ar
    12    10    11   ar
    13    12    13   ar
    14    12    29   ar
    15    13    14   ar
    16    14    15    1
    17    14    22   ar
    18    15    16    1
    19    16    17   ar
    20    16    21   ar
    21    17    18   ar
    22    18    19   ar
    23    19    20   ar
    24    20    21   ar
    25    22    23    2
    26    22    24   ar
    27    24    25   ar
    28    24    29   ar
    29    25    26   ar
    30    26    27   ar
    31    27    28   ar
    32    28    29   ar
    33     3    30    1
    34     4    31    1
    35     4    32    1
    36     6    33    1
    37     7    34    1
    38    10    35    1
    39    11    36    1
    40    15    37    1
    41    15    38    1
    42    17    39    1
    43    18    40    1
    44    19    41    1
    45    20    42    1
    46    21    43    1
    47    25    44    1
    48    26    45    1
    49    27    46    1
    50    28    47    1
@<TRIPOS>MOLECULE
../data/bude_mols_rdkit_confs2/molecule_24.pdb
 47 50 0 0 0
SMALL
GASTEIGER

@<TRIPOS>ATOM
      1  O1         1.2570    1.1860    1.7240 O.2     1  UNL1       -0.2684
      2  C1         1.0340    0.2430    0.8780 C.2     1  UNL1        0.2650
      3  N1         1.9090   -0.8570    0.9340 N.am    1  UNL1       -0.3059
      4  C2         3.0220   -0.9400    1.8620 C.3     1  UNL1        0.0372
      5  C3         4.1810   -0.1110    1.4660 C.ar    1  UNL1       -0.0301
      6  C4         4.4030    1.1250    2.0270 C.ar    1  UNL1       -0.0544
      7  C5         5.5120    1.8810    1.6210 C.ar    1  UNL1       -0.0261
      8  C6         6.3950    1.4170    0.6680 C.ar    1  UNL1        0.1234
      9  F1         7.4720    2.1900    0.2960 F       1  UNL1       -0.2055
     10  C7         6.1660    0.1870    0.1150 C.ar    1  UNL1       -0.0261
     11  C8         5.0720   -0.5450    0.5230 C.ar    1  UNL1       -0.0544
     12  C9        -0.0780    0.3870   -0.0330 C.ar    1  UNL1        0.1535
     13  N2        -1.2920    0.8070    0.4110 N.ar    1  UNL1       -0.1626
     14  N3        -2.3410    0.9740   -0.3700 N.ar    1  UNL1       -0.2239
     15  C10       -3.5910    1.4270    0.2100 C.3     1  UNL1        0.0703
     16  C11       -4.4520    0.3010    0.6570 C.ar    1  UNL1       -0.0260
     17  C12       -4.3020   -0.1560    1.9420 C.ar    1  UNL1       -0.0568
     18  C13       -5.0790   -1.1980    2.4020 C.ar    1  UNL1       -0.0614
     19  C14       -6.0140   -1.7890    1.5730 C.ar    1  UNL1       -0.0617
     20  C15       -6.1700   -1.3320    0.2760 C.ar    1  UNL1       -0.0614
     21  C16       -5.3910   -0.3000   -0.1600 C.ar    1  UNL1       -0.0568
     22  C17       -2.2470    0.7270   -1.6870 C.ar    1  UNL1        0.2753
     23  O2        -3.2160    0.8690   -2.4690 O.2     1  UNL1       -0.2655
     24  C18       -1.0590    0.2990   -2.2360 C.ar    1  UNL1        0.0503
     25  C19       -0.9180    0.0640   -3.5840 C.ar    1  UNL1       -0.0487
     26  C20        0.2650   -0.3320   -4.1550 C.ar    1  UNL1       -0.0610
     27  C21        1.3540   -0.4980   -3.3350 C.ar    1  UNL1       -0.0611
     28  C22        1.2140   -0.2620   -1.9700 C.ar    1  UNL1       -0.0516
     29  C23        0.0360    0.1320   -1.3800 C.ar    1  UNL1        0.0195
     30 H           1.7592   -1.6068    0.3138 H       1  UNL1        0.1494
     31 H           3.3392   -1.9602    1.9206 H       1  UNL1        0.0512
     32 H           2.6758   -0.5689    2.8040 H       1  UNL1        0.0512
     33 H           3.7572    1.4938    2.7425 H       1  UNL1        0.0622
     34 H           5.6717    2.8079    2.0458 H       1  UNL1        0.0646
     35 H           6.8066   -0.1894   -0.6012 H       1  UNL1        0.0646
     36 H           4.9165   -1.4706    0.0940 H       1  UNL1        0.0622
     37 H          -4.1234    1.9959   -0.5234 H       1  UNL1        0.0560
     38 H          -3.3551    2.0174    1.0706 H       1  UNL1        0.0560
     39 H          -3.6058    0.2813    2.5658 H       1  UNL1        0.0621
     40 H          -4.9620   -1.5381    3.3693 H       1  UNL1        0.0618
     41 H          -6.5940   -2.5687    1.9202 H       1  UNL1        0.0618
     42 H          -6.8650   -1.7652   -0.3519 H       1  UNL1        0.0618
     43 H          -5.5062    0.0414   -1.1271 H       1  UNL1        0.0621
     44 H          -1.7404    0.1915   -4.1943 H       1  UNL1        0.0625
     45 H           0.3344   -0.5002   -5.1708 H       1  UNL1        0.0618
     46 H           2.2628   -0.7933   -3.7248 H       1  UNL1        0.0618
     47 H           2.0414   -0.3901   -1.3667 H       1  UNL1        0.0624
@<TRIPOS>BOND
     1     1     2    2
     2     2     3   am
     3     2    12    1
     4     3     4    1
     5     4     5    1
     6     5     6   ar
     7     5    11   ar
     8     6     7   ar
     9     7     8   ar
    10     8     9    1
    11     8    10   ar
    12    10    11   ar
    13    12    13   ar
    14    12    29   ar
    15    13    14   ar
    16    14    15    1
    17    14    22   ar
    18    15    16    1
    19    16    17   ar
    20    16    21   ar
    21    17    18   ar
    22    18    19   ar
    23    19    20   ar
    24    20    21   ar
    25    22    23    2
    26    22    24   ar
    27    24    25   ar
    28    24    29   ar
    29    25    26   ar
    30    26    27   ar
    31    27    28   ar
    32    28    29   ar
    33     3    30    1
    34     4    31    1
    35     4    32    1
    36     6    33    1
    37     7    34    1
    38    10    35    1
    39    11    36    1
    40    15    37    1
    41    15    38    1
    42    17    39    1
    43    18    40    1
    44    19    41    1
    45    20    42    1
    46    21    43    1
    47    25    44    1
    48    26    45    1
    49    27    46    1
    50    28    47    1
@<TRIPOS>MOLECULE
../data/bude_mols_rdkit_confs2/molecule_24.pdb
 47 50 0 0 0
SMALL
GASTEIGER

@<TRIPOS>ATOM
      1  O1         2.0280   -0.6000    1.7250 O.2     1  UNL1       -0.2684
      2  C1         1.2500   -0.1290    0.8930 C.2     1  UNL1        0.2650
      3  N1         1.6610    1.1740    0.3910 N.am    1  UNL1       -0.3059
      4  C2         2.8700    1.8240    0.8470 C.3     1  UNL1        0.0372
      5  C3         4.1090    1.2620    0.2790 C.ar    1  UNL1       -0.0301
      6  C4         4.9070    0.4250    1.0200 C.ar    1  UNL1       -0.0544
      7  C5         6.0660   -0.1000    0.4850 C.ar    1  UNL1       -0.0261
      8  C6         6.4490    0.2010   -0.8010 C.ar    1  UNL1        0.1234
      9  F1         7.5990   -0.3190   -1.3330 F       1  UNL1       -0.2055
     10  C7         5.6700    1.0300   -1.5500 C.ar    1  UNL1       -0.0261
     11  C8         4.4930    1.5630   -1.0060 C.ar    1  UNL1       -0.0544
     12  C9         0.0250   -0.7280    0.3970 C.ar    1  UNL1        0.1535
     13  N2        -0.7480   -0.0280   -0.4880 N.ar    1  UNL1       -0.1626
     14  N3        -1.8700   -0.4550   -1.0070 N.ar    1  UNL1       -0.2239
     15  C10       -2.6360    0.3760   -1.9450 C.3     1  UNL1        0.0703
     16  C11       -3.5970    1.2510   -1.2450 C.ar    1  UNL1       -0.0260
     17  C12       -4.8840    0.8390   -0.9990 C.ar    1  UNL1       -0.0568
     18  C13       -5.8010    1.6540   -0.3360 C.ar    1  UNL1       -0.0614
     19  C14       -5.4130    2.9090    0.0850 C.ar    1  UNL1       -0.0617
     20  C15       -4.1210    3.3060   -0.1700 C.ar    1  UNL1       -0.0614
     21  C16       -3.2190    2.4870   -0.8290 C.ar    1  UNL1       -0.0568
     22  C17       -2.2790   -1.6760   -0.6310 C.ar    1  UNL1        0.2753
     23  O2        -3.3500   -2.1350   -1.0990 O.2     1  UNL1       -0.2655
     24  C18       -1.5590   -2.4550    0.2610 C.ar    1  UNL1        0.0503
     25  C19       -1.9850   -3.7050    0.6380 C.ar    1  UNL1       -0.0487
     26  C20       -1.2900   -4.5110    1.5250 C.ar    1  UNL1       -0.0610
     27  C21       -0.1130   -4.0280    2.0500 C.ar    1  UNL1       -0.0611
     28  C22        0.3480   -2.7550    1.6830 C.ar    1  UNL1       -0.0516
     29  C23       -0.3650   -1.9760    0.7990 C.ar    1  UNL1        0.0195
     30 H           1.0992    1.6265   -0.2790 H       1  UNL1        0.1494
     31 H           2.9181    1.7341    1.9121 H       1  UNL1        0.0512
     32 H           2.8149    2.8410    0.5191 H       1  UNL1        0.0512
     33 H           4.6372    0.1861    1.9870 H       1  UNL1        0.0622
     34 H           6.6529   -0.7267    1.0576 H       1  UNL1        0.0646
     35 H           5.9457    1.2654   -2.5162 H       1  UNL1        0.0646
     36 H           3.9066    2.1902   -1.5784 H       1  UNL1        0.0622
     37 H          -3.1735   -0.2629   -2.6142 H       1  UNL1        0.0560
     38 H          -1.9467    0.9981   -2.4768 H       1  UNL1        0.0560
     39 H          -5.1802   -0.0984   -1.3131 H       1  UNL1        0.0621
     40 H          -6.7621    1.3209   -0.1617 H       1  UNL1        0.0618
     41 H          -6.0727    3.5318    0.5769 H       1  UNL1        0.0618
     42 H          -3.8146    4.2418    0.1388 H       1  UNL1        0.0618
     43 H          -2.2571    2.8171   -1.0043 H       1  UNL1        0.0621
     44 H          -2.8678   -4.0621    0.2403 H       1  UNL1        0.0625
     45 H          -1.6441   -5.4451    1.7842 H       1  UNL1        0.0618
     46 H           0.4302   -4.6022    2.7135 H       1  UNL1        0.0618
     47 H           1.2313   -2.3982    2.0799 H       1  UNL1        0.0624
@<TRIPOS>BOND
     1     1     2    2
     2     2     3   am
     3     2    12    1
     4     3     4    1
     5     4     5    1
     6     5     6   ar
     7     5    11   ar
     8     6     7   ar
     9     7     8   ar
    10     8     9    1
    11     8    10   ar
    12    10    11   ar
    13    12    13   ar
    14    12    29   ar
    15    13    14   ar
    16    14    15    1
    17    14    22   ar
    18    15    16    1
    19    16    17   ar
    20    16    21   ar
    21    17    18   ar
    22    18    19   ar
    23    19    20   ar
    24    20    21   ar
    25    22    23    2
    26    22    24   ar
    27    24    25   ar
    28    24    29   ar
    29    25    26   ar
    30    26    27   ar
    31    27    28   ar
    32    28    29   ar
    33     3    30    1
    34     4    31    1
    35     4    32    1
    36     6    33    1
    37     7    34    1
    38    10    35    1
    39    11    36    1
    40    15    37    1
    41    15    38    1
    42    17    39    1
    43    18    40    1
    44    19    41    1
    45    20    42    1
    46    21    43    1
    47    25    44    1
    48    26    45    1
    49    27    46    1
    50    28    47    1
@<TRIPOS>MOLECULE
../data/bude_mols_rdkit_confs2/molecule_24.pdb
 47 50 0 0 0
SMALL
GASTEIGER

@<TRIPOS>ATOM
      1  O1         2.1470    1.1480   -1.3810 O.2     1  UNL1       -0.2684
      2  C1         1.3040    0.8120   -0.5700 C.2     1  UNL1        0.2650
      3  N1         1.3870    1.4440    0.7290 N.am    1  UNL1       -0.3059
      4  C2         2.4290    2.4110    1.0000 C.3     1  UNL1        0.0372
      5  C3         3.7190    1.7170    1.2130 C.ar    1  UNL1       -0.0301
      6  C4         4.8970    2.4380    1.3950 C.ar    1  UNL1       -0.0544
      7  C5         6.0590    1.7560    1.5910 C.ar    1  UNL1       -0.0261
      8  C6         6.0620    0.3760    1.6070 C.ar    1  UNL1        0.1234
      9  F1         7.2310   -0.2790    1.8030 F       1  UNL1       -0.2055
     10  C7         4.8980   -0.3450    1.4270 C.ar    1  UNL1       -0.0261
     11  C8         3.7170    0.3390    1.2290 C.ar    1  UNL1       -0.0544
     12  C9         0.2530   -0.1400   -0.7830 C.ar    1  UNL1        0.1535
     13  N2        -0.6320   -0.4100    0.2320 N.ar    1  UNL1       -0.1626
     14  N3        -1.6230   -1.2630    0.1420 N.ar    1  UNL1       -0.2239
     15  C10       -2.5310   -1.5000    1.2770 C.3     1  UNL1        0.0703
     16  C11       -3.6930   -0.5980    1.2700 C.ar    1  UNL1       -0.0260
     17  C12       -4.8940   -0.9260    0.6530 C.ar    1  UNL1       -0.0568
     18  C13       -5.9760   -0.0710    0.6540 C.ar    1  UNL1       -0.0614
     19  C14       -5.9000    1.1700    1.2840 C.ar    1  UNL1       -0.0617
     20  C15       -4.7280    1.4970    1.8900 C.ar    1  UNL1       -0.0614
     21  C16       -3.6500    0.6390    1.8860 C.ar    1  UNL1       -0.0568
     22  C17       -1.8210   -1.9380   -1.0000 C.ar    1  UNL1        0.2753
     23  O2        -2.7490   -2.7700   -1.1570 O.2     1  UNL1       -0.2655
     24  C18       -0.9670   -1.7170   -2.0670 C.ar    1  UNL1        0.0503
     25  C19       -1.1580   -2.4060   -3.2550 C.ar    1  UNL1       -0.0487
     26  C20       -0.3200   -2.1950   -4.3150 C.ar    1  UNL1       -0.0610
     27  C21        0.7200   -1.3020   -4.2260 C.ar    1  UNL1       -0.0611
     28  C22        0.9240   -0.6100   -3.0570 C.ar    1  UNL1       -0.0516
     29  C23        0.1000   -0.8030   -1.9800 C.ar    1  UNL1        0.0195
     30 H           0.7338    1.2159    1.4294 H       1  UNL1        0.1494
     31 H           2.1765    2.9675    1.8783 H       1  UNL1        0.0512
     32 H           2.5198    3.0737    0.1648 H       1  UNL1        0.0512
     33 H           4.8891    3.4699    1.3815 H       1  UNL1        0.0622
     34 H           6.9414    2.2733    1.7282 H       1  UNL1        0.0646
     35 H           4.9117   -1.3768    1.4404 H       1  UNL1        0.0646
     36 H           2.8349   -0.1792    1.0933 H       1  UNL1        0.0622
     37 H          -1.9879   -1.3521    2.1870 H       1  UNL1        0.0560
     38 H          -2.8979   -2.5017    1.1947 H       1  UNL1        0.0560
     39 H          -4.9790   -1.8387    0.1788 H       1  UNL1        0.0621
     40 H          -6.8504   -0.3527    0.1838 H       1  UNL1        0.0618
     41 H          -6.7041    1.8169    1.2902 H       1  UNL1        0.0618
     42 H          -4.6437    2.4096    2.3644 H       1  UNL1        0.0618
     43 H          -2.7802    0.9298    2.3593 H       1  UNL1        0.0621
     44 H          -1.9349   -3.0801   -3.3396 H       1  UNL1        0.0625
     45 H          -0.4711   -2.7140   -5.1941 H       1  UNL1        0.0618
     46 H           1.3450   -1.1517   -5.0334 H       1  UNL1        0.0618
     47 H           1.7050    0.0612   -2.9896 H       1  UNL1        0.0624
@<TRIPOS>BOND
     1     1     2    2
     2     2     3   am
     3     2    12    1
     4     3     4    1
     5     4     5    1
     6     5     6   ar
     7     5    11   ar
     8     6     7   ar
     9     7     8   ar
    10     8     9    1
    11     8    10   ar
    12    10    11   ar
    13    12    13   ar
    14    12    29   ar
    15    13    14   ar
    16    14    15    1
    17    14    22   ar
    18    15    16    1
    19    16    17   ar
    20    16    21   ar
    21    17    18   ar
    22    18    19   ar
    23    19    20   ar
    24    20    21   ar
    25    22    23    2
    26    22    24   ar
    27    24    25   ar
    28    24    29   ar
    29    25    26   ar
    30    26    27   ar
    31    27    28   ar
    32    28    29   ar
    33     3    30    1
    34     4    31    1
    35     4    32    1
    36     6    33    1
    37     7    34    1
    38    10    35    1
    39    11    36    1
    40    15    37    1
    41    15    38    1
    42    17    39    1
    43    18    40    1
    44    19    41    1
    45    20    42    1
    46    21    43    1
    47    25    44    1
    48    26    45    1
    49    27    46    1
    50    28    47    1
@<TRIPOS>MOLECULE
../data/bude_mols_rdkit_confs2/molecule_24.pdb
 47 50 0 0 0
SMALL
GASTEIGER

@<TRIPOS>ATOM
      1  O1        -1.3860    0.7180    1.3000 O.2     1  UNL1       -0.2684
      2  C1        -1.2470   -0.5180    0.9410 C.2     1  UNL1        0.2650
      3  N1        -2.4210   -1.2820    0.9900 N.am    1  UNL1       -0.3059
      4  C2        -3.7120   -0.7550    1.3850 C.3     1  UNL1        0.0372
      5  C3        -4.3740    0.0600    0.3650 C.ar    1  UNL1       -0.0301
      6  C4        -5.6520    0.5040    0.5890 C.ar    1  UNL1       -0.0544
      7  C5        -6.3340    1.2790   -0.3380 C.ar    1  UNL1       -0.0261
      8  C6        -5.7330    1.6310   -1.5310 C.ar    1  UNL1        0.1234
      9  F1        -6.3870    2.3950   -2.4580 F       1  UNL1       -0.2055
     10  C7        -4.4470    1.1810   -1.7490 C.ar    1  UNL1       -0.0261
     11  C8        -3.7590    0.3990   -0.8150 C.ar    1  UNL1       -0.0544
     12  C9         0.0870   -0.9280    0.5530 C.ar    1  UNL1        0.1535
     13  N2         1.1280   -0.4300    1.2970 N.ar    1  UNL1       -0.1626
     14  N3         2.3930   -0.6910    1.0710 N.ar    1  UNL1       -0.2239
     15  C10        3.4510   -0.1130    1.9200 C.3     1  UNL1        0.0703
     16  C11        3.9070    1.2080    1.4020 C.ar    1  UNL1       -0.0260
     17  C12        3.2650    2.3800    1.7690 C.ar    1  UNL1       -0.0568
     18  C13        3.6760    3.6120    1.3050 C.ar    1  UNL1       -0.0614
     19  C14        4.7540    3.6730    0.4550 C.ar    1  UNL1       -0.0617
     20  C15        5.4280    2.5400    0.0590 C.ar    1  UNL1       -0.0614
     21  C16        4.9960    1.3300    0.5370 C.ar    1  UNL1       -0.0568
     22  C17        2.7060   -1.5000    0.0460 C.ar    1  UNL1        0.2753
     23  O2         3.9240   -1.7700   -0.1920 O.2     1  UNL1       -0.2655
     24  C18        1.7420   -2.0590   -0.7740 C.ar    1  UNL1        0.0503
     25  C19        2.0580   -2.8650   -1.8420 C.ar    1  UNL1       -0.0487
     26  C20        1.1050   -3.4020   -2.6820 C.ar    1  UNL1       -0.0610
     27  C21       -0.2070   -3.0860   -2.3980 C.ar    1  UNL1       -0.0611
     28  C22       -0.5640   -2.2690   -1.3180 C.ar    1  UNL1       -0.0516
     29  C23        0.4090   -1.7520   -0.4970 C.ar    1  UNL1        0.0195
     30 H          -2.3654   -2.2330    0.7414 H       1  UNL1        0.1494
     31 H          -3.5735   -0.1508    2.2572 H       1  UNL1        0.0512
     32 H          -4.3454   -1.6000    1.5570 H       1  UNL1        0.0512
     33 H          -6.1207    0.2541    1.4738 H       1  UNL1        0.0622
     34 H          -7.2955    1.5942   -0.1352 H       1  UNL1        0.0646
     35 H          -3.9758    1.4302   -2.6327 H       1  UNL1        0.0646
     36 H          -2.7975    0.0796   -1.0112 H       1  UNL1        0.0622
     37 H           4.2841   -0.7840    1.9423 H       1  UNL1        0.0560
     38 H           3.0516    0.0315    2.9021 H       1  UNL1        0.0560
     39 H           2.4561    2.3294    2.4079 H       1  UNL1        0.0621
     40 H           3.1830    4.4723    1.5909 H       1  UNL1        0.0618
     41 H           5.0664    4.5920    0.1045 H       1  UNL1        0.0618
     42 H           6.2361    2.5998   -0.5800 H       1  UNL1        0.0618
     43 H           5.4957    0.4753    0.2458 H       1  UNL1        0.0621
     44 H           3.0515   -3.0774   -2.0230 H       1  UNL1        0.0625
     45 H           1.3595   -4.0066   -3.4787 H       1  UNL1        0.0618
     46 H          -0.9523   -3.4651   -3.0029 H       1  UNL1        0.0618
     47 H          -1.5576   -2.0553   -1.1388 H       1  UNL1        0.0624
@<TRIPOS>BOND
     1     1     2    2
     2     2     3   am
     3     2    12    1
     4     3     4    1
     5     4     5    1
     6     5     6   ar
     7     5    11   ar
     8     6     7   ar
     9     7     8   ar
    10     8     9    1
    11     8    10   ar
    12    10    11   ar
    13    12    13   ar
    14    12    29   ar
    15    13    14   ar
    16    14    15    1
    17    14    22   ar
    18    15    16    1
    19    16    17   ar
    20    16    21   ar
    21    17    18   ar
    22    18    19   ar
    23    19    20   ar
    24    20    21   ar
    25    22    23    2
    26    22    24   ar
    27    24    25   ar
    28    24    29   ar
    29    25    26   ar
    30    26    27   ar
    31    27    28   ar
    32    28    29   ar
    33     3    30    1
    34     4    31    1
    35     4    32    1
    36     6    33    1
    37     7    34    1
    38    10    35    1
    39    11    36    1
    40    15    37    1
    41    15    38    1
    42    17    39    1
    43    18    40    1
    44    19    41    1
    45    20    42    1
    46    21    43    1
    47    25    44    1
    48    26    45    1
    49    27    46    1
    50    28    47    1
@<TRIPOS>MOLECULE
../data/bude_mols_rdkit_confs2/molecule_24.pdb
 47 50 0 0 0
SMALL
GASTEIGER

@<TRIPOS>ATOM
      1  O1         1.3970   -1.3100    0.2930 O.2     1  UNL1       -0.2684
      2  C1         1.3580   -0.4300   -0.6350 C.2     1  UNL1        0.2650
      3  N1         2.5670   -0.0860   -1.2770 N.am    1  UNL1       -0.3059
      4  C2         3.8140   -0.7420   -0.8970 C.3     1  UNL1        0.0372
      5  C3         4.3310   -0.2160    0.3860 C.ar    1  UNL1       -0.0301
      6  C4         3.7350    0.7850    1.1020 C.ar    1  UNL1       -0.0544
      7  C5         4.2850    1.2250    2.3050 C.ar    1  UNL1       -0.0261
      8  C6         5.4440    0.6440    2.7770 C.ar    1  UNL1        0.1234
      9  F1         6.0310    1.0270    3.9400 F       1  UNL1       -0.2055
     10  C7         6.0620   -0.3660    2.0720 C.ar    1  UNL1       -0.0261
     11  C8         5.4850   -0.7670    0.8950 C.ar    1  UNL1       -0.0544
     12  C9         0.0460    0.1120   -0.9010 C.ar    1  UNL1        0.1535
     13  N2        -0.7750    0.4410    0.1460 N.ar    1  UNL1       -0.1626
     14  N3        -1.9840    0.9240    0.0130 N.ar    1  UNL1       -0.2239
     15  C10       -2.7530    1.2300    1.1800 C.3     1  UNL1        0.0703
     16  C11       -3.5650    0.1150    1.6760 C.ar    1  UNL1       -0.0260
     17  C12       -4.8650   -0.0850    1.2710 C.ar    1  UNL1       -0.0568
     18  C13       -5.5820   -1.1630    1.7770 C.ar    1  UNL1       -0.0614
     19  C14       -4.9880   -2.0260    2.6800 C.ar    1  UNL1       -0.0617
     20  C15       -3.6850   -1.8290    3.0880 C.ar    1  UNL1       -0.0614
     21  C16       -2.9800   -0.7560    2.5820 C.ar    1  UNL1       -0.0568
     22  C17       -2.4620    1.1140   -1.2110 C.ar    1  UNL1        0.2753
     23  O2        -3.6380    1.5860   -1.4120 O.2     1  UNL1       -0.2655
     24  C18       -1.7020    0.8060   -2.3250 C.ar    1  UNL1        0.0503
     25  C19       -2.2620    0.9990   -3.5840 C.ar    1  UNL1       -0.0487
     26  C20       -1.5430    0.6750   -4.7150 C.ar    1  UNL1       -0.0610
     27  C21       -0.2760    0.1630   -4.5610 C.ar    1  UNL1       -0.0611
     28  C22        0.2890   -0.0310   -3.3040 C.ar    1  UNL1       -0.0516
     29  C23       -0.4070    0.2880   -2.1760 C.ar    1  UNL1        0.0195
     30 H           2.5691    0.5992   -1.9839 H       1  UNL1        0.1494
     31 H           4.5432   -0.5734   -1.6616 H       1  UNL1        0.0512
     32 H           3.6223   -1.7881   -0.7796 H       1  UNL1        0.0512
     33 H           2.8685    1.2195    0.7479 H       1  UNL1        0.0622
     34 H           3.8281    1.9806    2.8392 H       1  UNL1        0.0646
     35 H           6.9293   -0.8053    2.4182 H       1  UNL1        0.0646
     36 H           5.9409   -1.5235    0.3613 H       1  UNL1        0.0622
     37 H          -3.4076    2.0435    0.9463 H       1  UNL1        0.0560
     38 H          -2.0539    1.4685    1.9541 H       1  UNL1        0.0560
     39 H          -5.3044    0.5607    0.5965 H       1  UNL1        0.0621
     40 H          -6.5575   -1.3194    1.4789 H       1  UNL1        0.0618
     41 H          -5.5247   -2.8250    3.0521 H       1  UNL1        0.0618
     42 H          -3.2440   -2.4745    3.7617 H       1  UNL1        0.0618
     43 H          -2.0049   -0.6000    2.8819 H       1  UNL1        0.0621
     44 H          -3.2153    1.3846   -3.6713 H       1  UNL1        0.0625
     45 H          -1.9461    0.8134   -5.6549 H       1  UNL1        0.0618
     46 H           0.2709   -0.0842   -5.4006 H       1  UNL1        0.0618
     47 H           1.2419   -0.4192   -3.2252 H       1  UNL1        0.0624
@<TRIPOS>BOND
     1     1     2    2
     2     2     3   am
     3     2    12    1
     4     3     4    1
     5     4     5    1
     6     5     6   ar
     7     5    11   ar
     8     6     7   ar
     9     7     8   ar
    10     8     9    1
    11     8    10   ar
    12    10    11   ar
    13    12    13   ar
    14    12    29   ar
    15    13    14   ar
    16    14    15    1
    17    14    22   ar
    18    15    16    1
    19    16    17   ar
    20    16    21   ar
    21    17    18   ar
    22    18    19   ar
    23    19    20   ar
    24    20    21   ar
    25    22    23    2
    26    22    24   ar
    27    24    25   ar
    28    24    29   ar
    29    25    26   ar
    30    26    27   ar
    31    27    28   ar
    32    28    29   ar
    33     3    30    1
    34     4    31    1
    35     4    32    1
    36     6    33    1
    37     7    34    1
    38    10    35    1
    39    11    36    1
    40    15    37    1
    41    15    38    1
    42    17    39    1
    43    18    40    1
    44    19    41    1
    45    20    42    1
    46    21    43    1
    47    25    44    1
    48    26    45    1
    49    27    46    1
    50    28    47    1
@<TRIPOS>MOLECULE
../data/bude_mols_rdkit_confs2/molecule_24.pdb
 47 50 0 0 0
SMALL
GASTEIGER

@<TRIPOS>ATOM
      1  O1         1.0620   -0.0990    1.7680 O.2     1  UNL1       -0.2684
      2  C1         1.1240   -0.8520    0.7270 C.2     1  UNL1        0.2650
      3  N1         2.3090   -1.5630    0.5260 N.am    1  UNL1       -0.3059
      4  C2         3.3870   -1.4330    1.5040 C.3     1  UNL1        0.0372
      5  C3         4.1210   -0.1310    1.3220 C.ar    1  UNL1       -0.0301
      6  C4         3.9490    0.9160    2.1850 C.ar    1  UNL1       -0.0544
      7  C5         4.6460    2.0960    1.9700 C.ar    1  UNL1       -0.0261
      8  C6         5.5120    2.2290    0.8970 C.ar    1  UNL1        0.1234
      9  F1         6.1970    3.3680    0.6750 F       1  UNL1       -0.2055
     10  C7         5.6780    1.1690    0.0340 C.ar    1  UNL1       -0.0261
     11  C8         4.9930   -0.0040    0.2370 C.ar    1  UNL1       -0.0544
     12  C9        -0.0090   -0.9200   -0.1800 C.ar    1  UNL1        0.1535
     13  N2        -0.6020    0.2540   -0.5180 N.ar    1  UNL1       -0.1626
     14  N3        -1.6410    0.3620   -1.3180 N.ar    1  UNL1       -0.2239
     15  C10       -2.1570    1.6820   -1.5740 C.3     1  UNL1        0.0703
     16  C11       -3.1790    2.1250   -0.6200 C.ar    1  UNL1       -0.0260
     17  C12       -2.8370    2.7940    0.5270 C.ar    1  UNL1       -0.0568
     18  C13       -3.8390    3.1980    1.4080 C.ar    1  UNL1       -0.0614
     19  C14       -5.1730    2.9490    1.1700 C.ar    1  UNL1       -0.0617
     20  C15       -5.5060    2.2770    0.0190 C.ar    1  UNL1       -0.0614
     21  C16       -4.5060    1.8660   -0.8760 C.ar    1  UNL1       -0.0568
     22  C17       -2.1700   -0.7710   -1.8510 C.ar    1  UNL1        0.2753
     23  O2        -3.1700   -0.6620   -2.6230 O.2     1  UNL1       -0.2655
     24  C18       -1.6100   -1.9900   -1.5400 C.ar    1  UNL1        0.0503
     25  C19       -2.1360   -3.1540   -2.0410 C.ar    1  UNL1       -0.0487
     26  C20       -1.5990   -4.3760   -1.7130 C.ar    1  UNL1       -0.0610
     27  C21       -0.5160   -4.4890   -0.8720 C.ar    1  UNL1       -0.0611
     28  C22        0.0320   -3.3080   -0.3540 C.ar    1  UNL1       -0.0516
     29  C23       -0.5080   -2.0870   -0.6890 C.ar    1  UNL1        0.0195
     30 H           2.4165   -2.1428   -0.2623 H       1  UNL1        0.1494
     31 H           4.0742   -2.2435    1.3782 H       1  UNL1        0.0512
     32 H           2.9628   -1.4528    2.4861 H       1  UNL1        0.0512
     33 H           3.3070    0.8290    2.9883 H       1  UNL1        0.0622
     34 H           4.5173    2.8874    2.6198 H       1  UNL1        0.0646
     35 H           6.3202    1.2563   -0.7691 H       1  UNL1        0.0646
     36 H           5.1226   -0.7944   -0.4138 H       1  UNL1        0.0622
     37 H          -2.5871    1.6897   -2.5537 H       1  UNL1        0.0560
     38 H          -1.3331    2.3577   -1.4768 H       1  UNL1        0.0560
     39 H          -1.8469    2.9966    0.7362 H       1  UNL1        0.0621
     40 H          -3.5722    3.7012    2.2686 H       1  UNL1        0.0618
     41 H          -5.8991    3.2575    1.8353 H       1  UNL1        0.0618
     42 H          -6.4962    2.0734   -0.1886 H       1  UNL1        0.0618
     43 H          -4.7695    1.3628   -1.7376 H       1  UNL1        0.0621
     44 H          -2.9490   -3.1113   -2.6752 H       1  UNL1        0.0625
     45 H          -2.0194   -5.2317   -2.1081 H       1  UNL1        0.0618
     46 H          -0.1210   -5.4115   -0.6311 H       1  UNL1        0.0618
     47 H           0.8439   -3.3538    0.2814 H       1  UNL1        0.0624
@<TRIPOS>BOND
     1     1     2    2
     2     2     3   am
     3     2    12    1
     4     3     4    1
     5     4     5    1
     6     5     6   ar
     7     5    11   ar
     8     6     7   ar
     9     7     8   ar
    10     8     9    1
    11     8    10   ar
    12    10    11   ar
    13    12    13   ar
    14    12    29   ar
    15    13    14   ar
    16    14    15    1
    17    14    22   ar
    18    15    16    1
    19    16    17   ar
    20    16    21   ar
    21    17    18   ar
    22    18    19   ar
    23    19    20   ar
    24    20    21   ar
    25    22    23    2
    26    22    24   ar
    27    24    25   ar
    28    24    29   ar
    29    25    26   ar
    30    26    27   ar
    31    27    28   ar
    32    28    29   ar
    33     3    30    1
    34     4    31    1
    35     4    32    1
    36     6    33    1
    37     7    34    1
    38    10    35    1
    39    11    36    1
    40    15    37    1
    41    15    38    1
    42    17    39    1
    43    18    40    1
    44    19    41    1
    45    20    42    1
    46    21    43    1
    47    25    44    1
    48    26    45    1
    49    27    46    1
    50    28    47    1
@<TRIPOS>MOLECULE
../data/bude_mols_rdkit_confs2/molecule_24.pdb
 47 50 0 0 0
SMALL
GASTEIGER

@<TRIPOS>ATOM
      1  O1         1.8280   -0.6720    1.7920 O.2     1  UNL1       -0.2684
      2  C1         1.4940   -1.0960    0.6230 C.2     1  UNL1        0.2650
      3  N1         2.5110   -1.2050   -0.3170 N.am    1  UNL1       -0.3059
      4  C2         3.8960   -0.8640    0.0610 C.3     1  UNL1        0.0372
      5  C3         4.1090    0.5990    0.1210 C.ar    1  UNL1       -0.0301
      6  C4         4.2500    1.2650   -1.0760 C.ar    1  UNL1       -0.0544
      7  C5         4.4540    2.6190   -1.0570 C.ar    1  UNL1       -0.0261
      8  C6         4.5200    3.3240    0.1180 C.ar    1  UNL1        0.1234
      9  F1         4.7240    4.6760    0.1190 F       1  UNL1       -0.2055
     10  C7         4.3800    2.6660    1.3310 C.ar    1  UNL1       -0.0261
     11  C8         4.1760    1.3030    1.2990 C.ar    1  UNL1       -0.0544
     12  C9         0.0830   -1.3910    0.4670 C.ar    1  UNL1        0.1535
     13  N2        -0.8140   -0.5230    1.0120 N.ar    1  UNL1       -0.1626
     14  N3        -2.1180   -0.6610    0.9640 N.ar    1  UNL1       -0.2239
     15  C10       -3.0090    0.3230    1.5780 C.3     1  UNL1        0.0703
     16  C11       -3.3940    1.4070    0.6720 C.ar    1  UNL1       -0.0260
     17  C12       -4.5130    1.3100   -0.1160 C.ar    1  UNL1       -0.0568
     18  C13       -4.8400    2.3700   -0.9640 C.ar    1  UNL1       -0.0614
     19  C14       -4.0650    3.5050   -1.0240 C.ar    1  UNL1       -0.0617
     20  C15       -2.9390    3.6030   -0.2310 C.ar    1  UNL1       -0.0614
     21  C16       -2.6230    2.5480    0.6060 C.ar    1  UNL1       -0.0568
     22  C17       -2.5910   -1.7440    0.3270 C.ar    1  UNL1        0.2753
     23  O2        -3.8370   -1.9150    0.2540 O.2     1  UNL1       -0.2655
     24  C18       -1.7630   -2.6790   -0.2540 C.ar    1  UNL1        0.0503
     25  C19       -2.2370   -3.8060   -0.8850 C.ar    1  UNL1       -0.0487
     26  C20       -1.4080   -4.7570   -1.4400 C.ar    1  UNL1       -0.0610
     27  C21       -0.0350   -4.5580   -1.3510 C.ar    1  UNL1       -0.0611
     28  C22        0.4820   -3.4380   -0.7260 C.ar    1  UNL1       -0.0516
     29  C23       -0.3750   -2.5040   -0.1840 C.ar    1  UNL1        0.0195
     30 H           2.3086   -1.5084   -1.2314 H       1  UNL1        0.1494
     31 H           4.5645   -1.2812   -0.6629 H       1  UNL1        0.0512
     32 H           4.0815   -1.2656    1.0353 H       1  UNL1        0.0512
     33 H           4.2028    0.7532   -1.9709 H       1  UNL1        0.0622
     34 H           4.5610    3.1229   -1.9512 H       1  UNL1        0.0646
     35 H           4.4269    3.1785    2.2255 H       1  UNL1        0.0646
     36 H           4.0700    0.7940    2.1904 H       1  UNL1        0.0622
     37 H          -2.5115    0.7492    2.4240 H       1  UNL1        0.0560
     38 H          -3.9060   -0.1920    1.8521 H       1  UNL1        0.0560
     39 H          -5.1048    0.4652   -0.0824 H       1  UNL1        0.0621
     40 H          -5.6808    2.3005   -1.5583 H       1  UNL1        0.0618
     41 H          -4.3234    4.2778   -1.6573 H       1  UNL1        0.0618
     42 H          -2.3451    4.4464   -0.2621 H       1  UNL1        0.0618
     43 H          -1.7824    2.6173    1.2006 H       1  UNL1        0.0621
     44 H          -3.2578   -3.9453   -0.9454 H       1  UNL1        0.0625
     45 H          -1.7949   -5.5917   -1.9076 H       1  UNL1        0.0618
     46 H           0.6075   -5.2560   -1.7571 H       1  UNL1        0.0618
     47 H           1.5032   -3.3022   -0.6657 H       1  UNL1        0.0624
@<TRIPOS>BOND
     1     1     2    2
     2     2     3   am
     3     2    12    1
     4     3     4    1
     5     4     5    1
     6     5     6   ar
     7     5    11   ar
     8     6     7   ar
     9     7     8   ar
    10     8     9    1
    11     8    10   ar
    12    10    11   ar
    13    12    13   ar
    14    12    29   ar
    15    13    14   ar
    16    14    15    1
    17    14    22   ar
    18    15    16    1
    19    16    17   ar
    20    16    21   ar
    21    17    18   ar
    22    18    19   ar
    23    19    20   ar
    24    20    21   ar
    25    22    23    2
    26    22    24   ar
    27    24    25   ar
    28    24    29   ar
    29    25    26   ar
    30    26    27   ar
    31    27    28   ar
    32    28    29   ar
    33     3    30    1
    34     4    31    1
    35     4    32    1
    36     6    33    1
    37     7    34    1
    38    10    35    1
    39    11    36    1
    40    15    37    1
    41    15    38    1
    42    17    39    1
    43    18    40    1
    44    19    41    1
    45    20    42    1
    46    21    43    1
    47    25    44    1
    48    26    45    1
    49    27    46    1
    50    28    47    1
@<TRIPOS>MOLECULE
../data/bude_mols_rdkit_confs2/molecule_24.pdb
 47 50 0 0 0
SMALL
GASTEIGER

@<TRIPOS>ATOM
      1  O1         2.5560   -1.3760   -0.8770 O.2     1  UNL1       -0.2684
      2  C1         1.4440   -1.3670   -0.3370 C.2     1  UNL1        0.2650
      3  N1         1.5000   -1.6200    1.1020 N.am    1  UNL1       -0.3059
      4  C2         2.7550   -1.8490    1.7630 C.3     1  UNL1        0.0372
      5  C3         3.5110   -0.5850    1.9510 C.ar    1  UNL1       -0.0301
      6  C4         4.7450   -0.6380    2.5580 C.ar    1  UNL1       -0.0544
      7  C5         5.5140    0.5010    2.7700 C.ar    1  UNL1       -0.0261
      8  C6         5.0210    1.7270    2.3570 C.ar    1  UNL1        0.1234
      9  F1         5.7440    2.8660    2.5470 F       1  UNL1       -0.2055
     10  C7         3.7710    1.7710    1.7440 C.ar    1  UNL1       -0.0261
     11  C8         3.0160    0.6320    1.5380 C.ar    1  UNL1       -0.0544
     12  C9         0.1460   -1.1430   -0.9440 C.ar    1  UNL1        0.1535
     13  N2        -0.9730   -1.1930   -0.1400 N.ar    1  UNL1       -0.1626
     14  N3        -2.1570   -1.0010   -0.6260 N.ar    1  UNL1       -0.2239
     15  C10       -3.3330   -1.0520    0.2250 C.3     1  UNL1        0.0703
     16  C11       -3.6710    0.2670    0.8080 C.ar    1  UNL1       -0.0260
     17  C12       -3.0810    0.6270    2.0010 C.ar    1  UNL1       -0.0568
     18  C13       -3.3500    1.8320    2.5990 C.ar    1  UNL1       -0.0614
     19  C14       -4.2360    2.7320    2.0060 C.ar    1  UNL1       -0.0617
     20  C15       -4.8280    2.3810    0.8160 C.ar    1  UNL1       -0.0614
     21  C16       -4.5430    1.1680    0.2370 C.ar    1  UNL1       -0.0568
     22  C17       -2.3020   -0.7520   -1.9200 C.ar    1  UNL1        0.2753
     23  O2        -3.4450   -0.5660   -2.3980 O.2     1  UNL1       -0.2655
     24  C18       -1.2510   -0.6820   -2.8080 C.ar    1  UNL1        0.0503
     25  C19       -1.4510   -0.4200   -4.1450 C.ar    1  UNL1       -0.0487
     26  C20       -0.3530   -0.3640   -4.9750 C.ar    1  UNL1       -0.0610
     27  C21        0.9260   -0.5620   -4.5010 C.ar    1  UNL1       -0.0611
     28  C22        1.1290   -0.8280   -3.1400 C.ar    1  UNL1       -0.0516
     29  C23        0.0350   -0.8890   -2.2890 C.ar    1  UNL1        0.0195
     30 H           0.6662   -1.6336    1.6253 H       1  UNL1        0.1494
     31 H           3.3419   -2.5202    1.1714 H       1  UNL1        0.0512
     32 H           2.5545   -2.2663    2.7277 H       1  UNL1        0.0512
     33 H           5.1114   -1.5524    2.8657 H       1  UNL1        0.0622
     34 H           6.4366    0.4336    3.2275 H       1  UNL1        0.0646
     35 H           3.3974    2.6818    1.4343 H       1  UNL1        0.0646
     36 H           2.0929    0.6926    1.0805 H       1  UNL1        0.0622
     37 H          -3.1499   -1.7422    1.0218 H       1  UNL1        0.0560
     38 H          -4.1591   -1.3599   -0.3814 H       1  UNL1        0.0560
     39 H          -2.4219   -0.0249    2.4545 H       1  UNL1        0.0621
     40 H          -2.8943    2.0742    3.4927 H       1  UNL1        0.0618
     41 H          -4.4422    3.6403    2.4505 H       1  UNL1        0.0618
     42 H          -5.4871    3.0292    0.3571 H       1  UNL1        0.0618
     43 H          -4.9978    0.9233   -0.6565 H       1  UNL1        0.0621
     44 H          -2.4018   -0.2690   -4.5167 H       1  UNL1        0.0625
     45 H          -0.4918   -0.1685   -5.9788 H       1  UNL1        0.0618
     46 H           1.7307   -0.5146   -5.1454 H       1  UNL1        0.0618
     47 H           2.0826   -0.9770   -2.7746 H       1  UNL1        0.0624
@<TRIPOS>BOND
     1     1     2    2
     2     2     3   am
     3     2    12    1
     4     3     4    1
     5     4     5    1
     6     5     6   ar
     7     5    11   ar
     8     6     7   ar
     9     7     8   ar
    10     8     9    1
    11     8    10   ar
    12    10    11   ar
    13    12    13   ar
    14    12    29   ar
    15    13    14   ar
    16    14    15    1
    17    14    22   ar
    18    15    16    1
    19    16    17   ar
    20    16    21   ar
    21    17    18   ar
    22    18    19   ar
    23    19    20   ar
    24    20    21   ar
    25    22    23    2
    26    22    24   ar
    27    24    25   ar
    28    24    29   ar
    29    25    26   ar
    30    26    27   ar
    31    27    28   ar
    32    28    29   ar
    33     3    30    1
    34     4    31    1
    35     4    32    1
    36     6    33    1
    37     7    34    1
    38    10    35    1
    39    11    36    1
    40    15    37    1
    41    15    38    1
    42    17    39    1
    43    18    40    1
    44    19    41    1
    45    20    42    1
    46    21    43    1
    47    25    44    1
    48    26    45    1
    49    27    46    1
    50    28    47    1
@<TRIPOS>MOLECULE
../data/bude_mols_rdkit_confs2/molecule_24.pdb
 47 50 0 0 0
SMALL
GASTEIGER

@<TRIPOS>ATOM
      1  O1        -1.3440    0.0130    1.6300 O.2     1  UNL1       -0.2684
      2  C1        -1.2810   -0.7310    0.6080 C.2     1  UNL1        0.2650
      3  N1        -2.4750   -1.3960    0.2460 N.am    1  UNL1       -0.3059
      4  C2        -3.6790   -1.2120    1.0620 C.3     1  UNL1        0.0372
      5  C3        -4.2960    0.0970    0.8010 C.ar    1  UNL1       -0.0301
      6  C4        -5.4590    0.4200    1.4700 C.ar    1  UNL1       -0.0544
      7  C5        -6.0540    1.6260    1.2490 C.ar    1  UNL1       -0.0261
      8  C6        -5.5320    2.5520    0.3690 C.ar    1  UNL1        0.1234
      9  F1        -6.1410    3.7430    0.1650 F       1  UNL1       -0.2055
     10  C7        -4.3670    2.2370   -0.3070 C.ar    1  UNL1       -0.0261
     11  C8        -3.7570    1.0020   -0.0810 C.ar    1  UNL1       -0.0544
     12  C9        -0.0420   -0.8760   -0.1500 C.ar    1  UNL1        0.1535
     13  N2         0.6770    0.2380   -0.4780 N.ar    1  UNL1       -0.1626
     14  N3         1.8090    0.2280   -1.1430 N.ar    1  UNL1       -0.2239
     15  C10        2.4530    1.4910   -1.4140 C.3     1  UNL1        0.0703
     16  C11        3.3910    1.9290   -0.3780 C.ar    1  UNL1       -0.0260
     17  C12        3.0200    2.6970    0.7110 C.ar    1  UNL1       -0.0568
     18  C13        3.9520    3.0870    1.6660 C.ar    1  UNL1       -0.0614
     19  C14        5.2750    2.7170    1.5540 C.ar    1  UNL1       -0.0617
     20  C15        5.6590    1.9500    0.4730 C.ar    1  UNL1       -0.0614
     21  C16        4.7160    1.5670   -0.4770 C.ar    1  UNL1       -0.0568
     22  C17        2.2930   -0.9480   -1.5260 C.ar    1  UNL1        0.2753
     23  O2         3.3560   -1.0070   -2.1570 O.2     1  UNL1       -0.2655
     24  C18        1.6440   -2.1500   -1.2440 C.ar    1  UNL1        0.0503
     25  C19        2.1820   -3.3550   -1.6280 C.ar    1  UNL1       -0.0487
     26  C20        1.5150   -4.5170   -1.2950 C.ar    1  UNL1       -0.0610
     27  C21        0.3420   -4.5180   -0.5990 C.ar    1  UNL1       -0.0611
     28  C22       -0.1770   -3.2720   -0.2250 C.ar    1  UNL1       -0.0516
     29  C23        0.4480   -2.0920   -0.5360 C.ar    1  UNL1        0.0195
     30 H          -2.4977   -1.9780   -0.5477 H       1  UNL1        0.1494
     31 H          -3.4135   -1.2739    2.0967 H       1  UNL1        0.0512
     32 H          -4.3827   -1.9775    0.8097 H       1  UNL1        0.0512
     33 H          -5.8767   -0.2493    2.1353 H       1  UNL1        0.0622
     34 H          -6.9233    1.8542    1.7563 H       1  UNL1        0.0646
     35 H          -3.9528    2.9087   -0.9721 H       1  UNL1        0.0646
     36 H          -2.8877    0.7651   -0.5842 H       1  UNL1        0.0622
     37 H           1.6939    2.2383   -1.5151 H       1  UNL1        0.0560
     38 H           3.0273    1.3545   -2.3065 H       1  UNL1        0.0560
     39 H           2.0347    2.9853    0.8163 H       1  UNL1        0.0621
     40 H           3.6495    3.6607    2.4688 H       1  UNL1        0.0618
     41 H           5.9647    3.0078    2.2645 H       1  UNL1        0.0618
     42 H           6.6441    1.6606    0.3689 H       1  UNL1        0.0618
     43 H           5.0193    0.9942   -1.2801 H       1  UNL1        0.0621
     44 H           3.0683   -3.3906   -2.1556 H       1  UNL1        0.0625
     45 H           1.9201   -5.4210   -1.5843 H       1  UNL1        0.0618
     46 H          -0.1415   -5.3975   -0.3587 H       1  UNL1        0.0618
     47 H          -1.0625   -3.2410    0.3042 H       1  UNL1        0.0624
@<TRIPOS>BOND
     1     1     2    2
     2     2     3   am
     3     2    12    1
     4     3     4    1
     5     4     5    1
     6     5     6   ar
     7     5    11   ar
     8     6     7   ar
     9     7     8   ar
    10     8     9    1
    11     8    10   ar
    12    10    11   ar
    13    12    13   ar
    14    12    29   ar
    15    13    14   ar
    16    14    15    1
    17    14    22   ar
    18    15    16    1
    19    16    17   ar
    20    16    21   ar
    21    17    18   ar
    22    18    19   ar
    23    19    20   ar
    24    20    21   ar
    25    22    23    2
    26    22    24   ar
    27    24    25   ar
    28    24    29   ar
    29    25    26   ar
    30    26    27   ar
    31    27    28   ar
    32    28    29   ar
    33     3    30    1
    34     4    31    1
    35     4    32    1
    36     6    33    1
    37     7    34    1
    38    10    35    1
    39    11    36    1
    40    15    37    1
    41    15    38    1
    42    17    39    1
    43    18    40    1
    44    19    41    1
    45    20    42    1
    46    21    43    1
    47    25    44    1
    48    26    45    1
    49    27    46    1
    50    28    47    1
@<TRIPOS>MOLECULE
../data/bude_mols_rdkit_confs2/molecule_24.pdb
 47 50 0 0 0
SMALL
GASTEIGER

@<TRIPOS>ATOM
      1  O1         1.7990   -0.2110   -1.9750 O.2     1  UNL1       -0.2684
      2  C1         1.4190   -0.9130   -0.9640 C.2     1  UNL1        0.2650
      3  N1         2.4290   -1.2800   -0.0760 N.am    1  UNL1       -0.3059
      4  C2         3.8190   -0.8840   -0.3380 C.3     1  UNL1        0.0372
      5  C3         4.1060    0.5020    0.0370 C.ar    1  UNL1       -0.0301
      6  C4         4.1700    1.4920   -0.8870 C.ar    1  UNL1       -0.0544
      7  C5         4.4430    2.7920   -0.4650 C.ar    1  UNL1       -0.0261
      8  C6         4.6400    3.0270    0.8860 C.ar    1  UNL1        0.1234
      9  F1         4.9050    4.2870    1.2970 F       1  UNL1       -0.2055
     10  C7         4.5750    2.0220    1.8260 C.ar    1  UNL1       -0.0261
     11  C8         4.3060    0.7470    1.4030 C.ar    1  UNL1       -0.0544
     12  C9         0.0010   -1.2230   -0.8680 C.ar    1  UNL1        0.1535
     13  N2        -0.8740   -0.2230   -1.2030 N.ar    1  UNL1       -0.1626
     14  N3        -2.1820   -0.3400   -1.1640 N.ar    1  UNL1       -0.2239
     15  C10       -3.0610    0.7800   -1.5330 C.3     1  UNL1        0.0703
     16  C11       -3.3540    1.6480   -0.3810 C.ar    1  UNL1       -0.0260
     17  C12       -4.4250    1.4350    0.4490 C.ar    1  UNL1       -0.0568
     18  C13       -4.6840    2.2690    1.5350 C.ar    1  UNL1       -0.0614
     19  C14       -3.8580    3.3210    1.7850 C.ar    1  UNL1       -0.0617
     20  C15       -2.7800    3.5590    0.9750 C.ar    1  UNL1       -0.0614
     21  C16       -2.5330    2.7180   -0.1080 C.ar    1  UNL1       -0.0568
     22  C17       -2.6850   -1.5200   -0.7710 C.ar    1  UNL1        0.2753
     23  O2        -3.9320   -1.6750   -0.7170 O.2     1  UNL1       -0.2655
     24  C18       -1.8740   -2.5800   -0.4190 C.ar    1  UNL1        0.0503
     25  C19       -2.3730   -3.7980   -0.0440 C.ar    1  UNL1       -0.0487
     26  C20       -1.5340   -4.8540    0.2720 C.ar    1  UNL1       -0.0610
     27  C21       -0.1550   -4.7030    0.2150 C.ar    1  UNL1       -0.0611
     28  C22        0.3510   -3.4770   -0.1600 C.ar    1  UNL1       -0.0516
     29  C23       -0.4860   -2.4330   -0.4680 C.ar    1  UNL1        0.0195
     30 H           2.2104   -1.8051    0.7276 H       1  UNL1        0.1494
     31 H           4.0141   -1.0005   -1.3836 H       1  UNL1        0.0512
     32 H           4.4458   -1.5111    0.2610 H       1  UNL1        0.0512
     33 H           4.0190    1.2863   -1.8870 H       1  UNL1        0.0622
     34 H           4.4974    3.5652   -1.1463 H       1  UNL1        0.0646
     35 H           4.7256    2.2251    2.8266 H       1  UNL1        0.0646
     36 H           4.2510   -0.0265    2.0840 H       1  UNL1        0.0622
     37 H          -3.9808    0.3875   -1.9136 H       1  UNL1        0.0560
     38 H          -2.5581    1.3675   -2.2725 H       1  UNL1        0.0560
     39 H          -5.0541    0.6380    0.2648 H       1  UNL1        0.0621
     40 H          -5.4966    2.0900    2.1454 H       1  UNL1        0.0618
     41 H          -4.0447    3.9417    2.5880 H       1  UNL1        0.0618
     42 H          -2.1539    4.3569    1.1656 H       1  UNL1        0.0618
     43 H          -1.7197    2.9008   -0.7164 H       1  UNL1        0.0621
     44 H          -3.3951   -3.9324    0.0043 H       1  UNL1        0.0625
     45 H          -1.9377   -5.7614    0.5524 H       1  UNL1        0.0618
     46 H           0.4741   -5.4875    0.4471 H       1  UNL1        0.0618
     47 H           1.3729   -3.3419   -0.2100 H       1  UNL1        0.0624
@<TRIPOS>BOND
     1     1     2    2
     2     2     3   am
     3     2    12    1
     4     3     4    1
     5     4     5    1
     6     5     6   ar
     7     5    11   ar
     8     6     7   ar
     9     7     8   ar
    10     8     9    1
    11     8    10   ar
    12    10    11   ar
    13    12    13   ar
    14    12    29   ar
    15    13    14   ar
    16    14    15    1
    17    14    22   ar
    18    15    16    1
    19    16    17   ar
    20    16    21   ar
    21    17    18   ar
    22    18    19   ar
    23    19    20   ar
    24    20    21   ar
    25    22    23    2
    26    22    24   ar
    27    24    25   ar
    28    24    29   ar
    29    25    26   ar
    30    26    27   ar
    31    27    28   ar
    32    28    29   ar
    33     3    30    1
    34     4    31    1
    35     4    32    1
    36     6    33    1
    37     7    34    1
    38    10    35    1
    39    11    36    1
    40    15    37    1
    41    15    38    1
    42    17    39    1
    43    18    40    1
    44    19    41    1
    45    20    42    1
    46    21    43    1
    47    25    44    1
    48    26    45    1
    49    27    46    1
    50    28    47    1
@<TRIPOS>MOLECULE
../data/bude_mols_rdkit_confs2/molecule_24.pdb
 47 50 0 0 0
SMALL
GASTEIGER

@<TRIPOS>ATOM
      1  O1         1.4330    0.9360   -2.4880 O.2     1  UNL1       -0.2684
      2  C1         1.1810    0.4920   -1.3250 C.2     1  UNL1        0.2650
      3  N1         2.1860   -0.3950   -0.7890 N.am    1  UNL1       -0.3059
      4  C2         3.3730   -0.6900   -1.5970 C.3     1  UNL1        0.0372
      5  C3         4.4490   -1.2090   -0.7360 C.ar    1  UNL1       -0.0301
      6  C4         4.4110   -2.5040   -0.2580 C.ar    1  UNL1       -0.0544
      7  C5         5.4300   -2.9870    0.5360 C.ar    1  UNL1       -0.0261
      8  C6         6.5050   -2.1940    0.8690 C.ar    1  UNL1        0.1234
      9  F1         7.5050   -2.6850    1.6550 F       1  UNL1       -0.2055
     10  C7         6.5700   -0.8910    0.4050 C.ar    1  UNL1       -0.0261
     11  C8         5.5370   -0.4280   -0.3890 C.ar    1  UNL1       -0.0544
     12  C9        -0.0210    0.8810   -0.6390 C.ar    1  UNL1        0.1535
     13  N2        -0.7480    0.0520    0.1580 N.ar    1  UNL1       -0.1626
     14  N3        -1.8040    0.3830    0.8420 N.ar    1  UNL1       -0.2239
     15  C10       -2.5060   -0.4870    1.7080 C.3     1  UNL1        0.0703
     16  C11       -3.7020   -1.1560    1.1780 C.ar    1  UNL1       -0.0260
     17  C12       -4.2900   -0.9620   -0.0390 C.ar    1  UNL1       -0.0568
     18  C13       -5.4430   -1.6280   -0.4120 C.ar    1  UNL1       -0.0614
     19  C14       -6.0310   -2.5170    0.4580 C.ar    1  UNL1       -0.0617
     20  C15       -5.4740   -2.7460    1.6950 C.ar    1  UNL1       -0.0614
     21  C16       -4.3290   -2.0610    2.0210 C.ar    1  UNL1       -0.0568
     22  C17       -2.2370    1.6830    0.7630 C.ar    1  UNL1        0.2753
     23  O2        -3.2450    2.0810    1.3900 O.2     1  UNL1       -0.2655
     24  C18       -1.5610    2.5920   -0.0210 C.ar    1  UNL1        0.0503
     25  C19       -1.9800    3.9250   -0.0900 C.ar    1  UNL1       -0.0487
     26  C20       -1.3270    4.8750   -0.8360 C.ar    1  UNL1       -0.0610
     27  C21       -0.2160    4.4840   -1.5390 C.ar    1  UNL1       -0.0611
     28  C22        0.2090    3.1490   -1.4750 C.ar    1  UNL1       -0.0516
     29  C23       -0.4500    2.2060   -0.7280 C.ar    1  UNL1        0.0195
     30 H           2.0761   -0.7949    0.1039 H       1  UNL1        0.1494
     31 H           3.7053    0.2054   -2.0794 H       1  UNL1        0.0512
     32 H           3.1244   -1.4262   -2.3326 H       1  UNL1        0.0512
     33 H           3.6142   -3.1149   -0.4967 H       1  UNL1        0.0622
     34 H           5.3860   -3.9570    0.8856 H       1  UNL1        0.0646
     35 H           7.3678   -0.2820    0.6453 H       1  UNL1        0.0646
     36 H           5.5794    0.5423   -0.7379 H       1  UNL1        0.0622
     37 H          -2.8103    0.0856    2.5591 H       1  UNL1        0.0560
     38 H          -1.8182   -1.2811    1.9110 H       1  UNL1        0.0560
     39 H          -3.8603   -0.2974   -0.7013 H       1  UNL1        0.0621
     40 H          -5.8612   -1.4587   -1.3402 H       1  UNL1        0.0618
     41 H          -6.8925   -3.0136    0.1818 H       1  UNL1        0.0618
     42 H          -5.9029   -3.4114    2.3570 H       1  UNL1        0.0618
     43 H          -3.9102   -2.2300    2.9490 H       1  UNL1        0.0621
     44 H          -2.8172    4.2069    0.4436 H       1  UNL1        0.0625
     45 H          -1.6611    5.8509   -0.8667 H       1  UNL1        0.0618
     46 H           0.3037    5.1677   -2.1113 H       1  UNL1        0.0618
     47 H           1.0462    2.8664   -2.0082 H       1  UNL1        0.0624
@<TRIPOS>BOND
     1     1     2    2
     2     2     3   am
     3     2    12    1
     4     3     4    1
     5     4     5    1
     6     5     6   ar
     7     5    11   ar
     8     6     7   ar
     9     7     8   ar
    10     8     9    1
    11     8    10   ar
    12    10    11   ar
    13    12    13   ar
    14    12    29   ar
    15    13    14   ar
    16    14    15    1
    17    14    22   ar
    18    15    16    1
    19    16    17   ar
    20    16    21   ar
    21    17    18   ar
    22    18    19   ar
    23    19    20   ar
    24    20    21   ar
    25    22    23    2
    26    22    24   ar
    27    24    25   ar
    28    24    29   ar
    29    25    26   ar
    30    26    27   ar
    31    27    28   ar
    32    28    29   ar
    33     3    30    1
    34     4    31    1
    35     4    32    1
    36     6    33    1
    37     7    34    1
    38    10    35    1
    39    11    36    1
    40    15    37    1
    41    15    38    1
    42    17    39    1
    43    18    40    1
    44    19    41    1
    45    20    42    1
    46    21    43    1
    47    25    44    1
    48    26    45    1
    49    27    46    1
    50    28    47    1
@<TRIPOS>MOLECULE
../data/bude_mols_rdkit_confs2/molecule_24.pdb
 47 50 0 0 0
SMALL
GASTEIGER

@<TRIPOS>ATOM
      1  O1         2.0510    0.6040    1.7070 O.2     1  UNL1       -0.2684
      2  C1         1.5810    1.0130    0.5860 C.2     1  UNL1        0.2650
      3  N1         2.5050    1.0720   -0.4700 N.am    1  UNL1       -0.3059
      4  C2         3.9100    0.7200   -0.3080 C.3     1  UNL1        0.0372
      5  C3         4.0970   -0.7460   -0.2470 C.ar    1  UNL1       -0.0301
      6  C4         5.3330   -1.3300   -0.0950 C.ar    1  UNL1       -0.0544
      7  C5         5.4900   -2.7030   -0.0400 C.ar    1  UNL1       -0.0261
      8  C6         4.3820   -3.5320   -0.1400 C.ar    1  UNL1        0.1234
      9  F1         4.5320   -4.8570   -0.0870 F       1  UNL1       -0.2055
     10  C7         3.1390   -2.9650   -0.2930 C.ar    1  UNL1       -0.0261
     11  C8         3.0160   -1.5860   -0.3440 C.ar    1  UNL1       -0.0544
     12  C9         0.1720    1.3450    0.5650 C.ar    1  UNL1        0.1535
     13  N2        -0.7230    0.5050    1.1700 N.ar    1  UNL1       -0.1626
     14  N3        -2.0160    0.7100    1.2230 N.ar    1  UNL1       -0.2239
     15  C10       -2.9170   -0.2440    1.8920 C.3     1  UNL1        0.0703
     16  C11       -3.4000   -1.2810    0.9750 C.ar    1  UNL1       -0.0260
     17  C12       -2.6760   -2.4350    0.8040 C.ar    1  UNL1       -0.0568
     18  C13       -3.0850   -3.4540   -0.0520 C.ar    1  UNL1       -0.0614
     19  C14       -4.2670   -3.2810   -0.7490 C.ar    1  UNL1       -0.0617
     20  C15       -4.9900   -2.1200   -0.5730 C.ar    1  UNL1       -0.0614
     21  C16       -4.5730   -1.1050    0.2860 C.ar    1  UNL1       -0.0568
     22  C17       -2.4640    1.8290    0.6350 C.ar    1  UNL1        0.2753
     23  O2        -3.6980    2.0750    0.6550 O.2     1  UNL1       -0.2655
     24  C18       -1.6540    2.7330    0.0070 C.ar    1  UNL1        0.0503
     25  C19       -2.1300    3.8910   -0.5690 C.ar    1  UNL1       -0.0487
     26  C20       -1.3200    4.8250   -1.1800 C.ar    1  UNL1       -0.0610
     27  C21        0.0330    4.5770   -1.2110 C.ar    1  UNL1       -0.0611
     28  C22        0.5440    3.4120   -0.6370 C.ar    1  UNL1       -0.0516
     29  C23       -0.2910    2.4920   -0.0340 C.ar    1  UNL1        0.0195
     30 H           2.1907    1.3632   -1.3564 H       1  UNL1        0.1494
     31 H           4.2754    1.1553    0.5986 H       1  UNL1        0.0512
     32 H           4.4496    1.0928   -1.1535 H       1  UNL1        0.0512
     33 H           6.1668   -0.7266   -0.0199 H       1  UNL1        0.0622
     34 H           6.4310   -3.1107    0.0754 H       1  UNL1        0.0646
     35 H           2.3018   -3.5635   -0.3695 H       1  UNL1        0.0646
     36 H           2.0764   -1.1751   -0.4592 H       1  UNL1        0.0622
     37 H          -3.7577    0.2907    2.2821 H       1  UNL1        0.0560
     38 H          -2.3667   -0.7250    2.6735 H       1  UNL1        0.0560
     39 H          -1.7956   -2.5514    1.3297 H       1  UNL1        0.0621
     40 H          -2.5232   -4.3125   -0.1631 H       1  UNL1        0.0618
     41 H          -4.6042   -4.0128   -1.3938 H       1  UNL1        0.0618
     42 H          -5.8713   -1.9985   -1.0961 H       1  UNL1        0.0618
     43 H          -5.1313   -0.2447    0.4006 H       1  UNL1        0.0621
     44 H          -3.1462    4.0686   -0.5416 H       1  UNL1        0.0625
     45 H          -1.7153    5.6809   -1.5997 H       1  UNL1        0.0618
     46 H           0.6708    5.2533   -1.6592 H       1  UNL1        0.0618
     47 H           1.5604    3.2355   -0.6635 H       1  UNL1        0.0624
@<TRIPOS>BOND
     1     1     2    2
     2     2     3   am
     3     2    12    1
     4     3     4    1
     5     4     5    1
     6     5     6   ar
     7     5    11   ar
     8     6     7   ar
     9     7     8   ar
    10     8     9    1
    11     8    10   ar
    12    10    11   ar
    13    12    13   ar
    14    12    29   ar
    15    13    14   ar
    16    14    15    1
    17    14    22   ar
    18    15    16    1
    19    16    17   ar
    20    16    21   ar
    21    17    18   ar
    22    18    19   ar
    23    19    20   ar
    24    20    21   ar
    25    22    23    2
    26    22    24   ar
    27    24    25   ar
    28    24    29   ar
    29    25    26   ar
    30    26    27   ar
    31    27    28   ar
    32    28    29   ar
    33     3    30    1
    34     4    31    1
    35     4    32    1
    36     6    33    1
    37     7    34    1
    38    10    35    1
    39    11    36    1
    40    15    37    1
    41    15    38    1
    42    17    39    1
    43    18    40    1
    44    19    41    1
    45    20    42    1
    46    21    43    1
    47    25    44    1
    48    26    45    1
    49    27    46    1
    50    28    47    1
@<TRIPOS>MOLECULE
../data/bude_mols_rdkit_confs2/molecule_24.pdb
 47 50 0 0 0
SMALL
GASTEIGER

@<TRIPOS>ATOM
      1  O1         2.1540   -1.7500   -0.4590 O.2     1  UNL1       -0.2684
      2  C1         1.2940   -0.8590   -0.4200 C.2     1  UNL1        0.2650
      3  N1         1.4950    0.2840   -1.2710 N.am    1  UNL1       -0.3059
      4  C2         2.6690    0.3210   -2.1000 C.3     1  UNL1        0.0372
      5  C3         3.9100    0.6900   -1.4140 C.ar    1  UNL1       -0.0301
      6  C4         4.8510   -0.2330   -1.0430 C.ar    1  UNL1       -0.0544
      7  C5         6.0220    0.1410   -0.3970 C.ar    1  UNL1       -0.0261
      8  C6         6.2780    1.4530   -0.1060 C.ar    1  UNL1        0.1234
      9  F1         7.4100    1.8570    0.5220 F       1  UNL1       -0.2055
     10  C7         5.3350    2.3970   -0.4760 C.ar    1  UNL1       -0.0261
     11  C8         4.1770    2.0140   -1.1160 C.ar    1  UNL1       -0.0544
     12  C9         0.1190   -0.9300    0.4320 C.ar    1  UNL1        0.1535
     13  N2        -0.6420    0.1760    0.6390 N.ar    1  UNL1       -0.1626
     14  N3        -1.7260    0.2230    1.3680 N.ar    1  UNL1       -0.2239
     15  C10       -2.4430    1.4700    1.5040 C.3     1  UNL1        0.0703
     16  C11       -3.4510    1.7370    0.4910 C.ar    1  UNL1       -0.0260
     17  C12       -4.7320    1.2650    0.6470 C.ar    1  UNL1       -0.0568
     18  C13       -5.7210    1.5020   -0.2910 C.ar    1  UNL1       -0.0614
     19  C14       -5.4170    2.2240   -1.4020 C.ar    1  UNL1       -0.0617
     20  C15       -4.1540    2.7130   -1.5990 C.ar    1  UNL1       -0.0614
     21  C16       -3.1870    2.4640   -0.6500 C.ar    1  UNL1       -0.0568
     22  C17       -2.1210   -0.9030    1.9580 C.ar    1  UNL1        0.2753
     23  O2        -3.1700   -0.9300    2.6850 O.2     1  UNL1       -0.2655
     24  C18       -1.4220   -2.0790    1.8130 C.ar    1  UNL1        0.0503
     25  C19       -1.8310   -3.2450    2.4130 C.ar    1  UNL1       -0.0487
     26  C20       -1.1400   -4.4400    2.2670 C.ar    1  UNL1       -0.0610
     27  C21       -0.0090   -4.4670    1.4980 C.ar    1  UNL1       -0.0611
     28  C22        0.4220   -3.2990    0.8820 C.ar    1  UNL1       -0.0516
     29  C23       -0.2620   -2.0990    1.0230 C.ar    1  UNL1        0.0195
     30 H           0.8443    1.0227   -1.2851 H       1  UNL1        0.1494
     31 H           2.4994    1.0321   -2.8813 H       1  UNL1        0.0512
     32 H           2.8128   -0.6788   -2.4532 H       1  UNL1        0.0512
     33 H           4.6860   -1.2308   -1.2485 H       1  UNL1        0.0622
     34 H           6.7095   -0.5817   -0.1324 H       1  UNL1        0.0646
     35 H           5.5010    3.3947   -0.2708 H       1  UNL1        0.0646
     36 H           3.4887    2.7358   -1.3808 H       1  UNL1        0.0622
     37 H          -1.7273    2.2648    1.4717 H       1  UNL1        0.0560
     38 H          -2.9748    1.3985    2.4297 H       1  UNL1        0.0560
     39 H          -4.9636    0.7167    1.4900 H       1  UNL1        0.0621
     40 H          -6.6755    1.1361   -0.1493 H       1  UNL1        0.0618
     41 H          -6.1487    2.4059   -2.1066 H       1  UNL1        0.0618
     42 H          -3.9296    3.2596   -2.4451 H       1  UNL1        0.0618
     43 H          -2.2348    2.8334   -0.7980 H       1  UNL1        0.0621
     44 H          -2.6838   -3.2321    2.9940 H       1  UNL1        0.0625
     45 H          -1.4754   -5.2976    2.7329 H       1  UNL1        0.0618
     46 H           0.5184   -5.3457    1.3768 H       1  UNL1        0.0618
     47 H           1.2756   -3.3239    0.3026 H       1  UNL1        0.0624
@<TRIPOS>BOND
     1     1     2    2
     2     2     3   am
     3     2    12    1
     4     3     4    1
     5     4     5    1
     6     5     6   ar
     7     5    11   ar
     8     6     7   ar
     9     7     8   ar
    10     8     9    1
    11     8    10   ar
    12    10    11   ar
    13    12    13   ar
    14    12    29   ar
    15    13    14   ar
    16    14    15    1
    17    14    22   ar
    18    15    16    1
    19    16    17   ar
    20    16    21   ar
    21    17    18   ar
    22    18    19   ar
    23    19    20   ar
    24    20    21   ar
    25    22    23    2
    26    22    24   ar
    27    24    25   ar
    28    24    29   ar
    29    25    26   ar
    30    26    27   ar
    31    27    28   ar
    32    28    29   ar
    33     3    30    1
    34     4    31    1
    35     4    32    1
    36     6    33    1
    37     7    34    1
    38    10    35    1
    39    11    36    1
    40    15    37    1
    41    15    38    1
    42    17    39    1
    43    18    40    1
    44    19    41    1
    45    20    42    1
    46    21    43    1
    47    25    44    1
    48    26    45    1
    49    27    46    1
    50    28    47    1
@<TRIPOS>MOLECULE
../data/bude_mols_rdkit_confs2/molecule_24.pdb
 47 50 0 0 0
SMALL
GASTEIGER

@<TRIPOS>ATOM
      1  O1        -2.0900    1.6470    0.8580 O.2     1  UNL1       -0.2684
      2  C1        -1.2970    0.7350    0.6700 C.2     1  UNL1        0.2650
      3  N1        -1.5470   -0.4990    1.3810 N.am    1  UNL1       -0.3059
      4  C2        -2.6780   -0.6280    2.2640 C.3     1  UNL1        0.0372
      5  C3        -3.9070   -0.8010    1.4660 C.ar    1  UNL1       -0.0301
      6  C4        -5.1240   -0.9620    2.1010 C.ar    1  UNL1       -0.0544
      7  C5        -6.2990   -1.1280    1.4040 C.ar    1  UNL1       -0.0261
      8  C6        -6.2450   -1.1320    0.0140 C.ar    1  UNL1        0.1234
      9  F1        -7.4090   -1.2970   -0.6660 F       1  UNL1       -0.2055
     10  C7        -5.0560   -0.9760   -0.6480 C.ar    1  UNL1       -0.0261
     11  C8        -3.9060   -0.8130    0.0900 C.ar    1  UNL1       -0.0544
     12  C9        -0.1430    0.7950   -0.2000 C.ar    1  UNL1        0.1535
     13  N2         0.6670   -0.3240   -0.2870 N.ar    1  UNL1       -0.1626
     14  N3         1.7340   -0.3720   -1.0430 N.ar    1  UNL1       -0.2239
     15  C10        2.5590   -1.5780   -1.0970 C.3     1  UNL1        0.0703
     16  C11        3.6260   -1.5800   -0.0670 C.ar    1  UNL1       -0.0260
     17  C12        3.3840   -2.0770    1.2080 C.ar    1  UNL1       -0.0568
     18  C13        4.3430   -2.1020    2.1940 C.ar    1  UNL1       -0.0614
     19  C14        5.5900   -1.6120    1.8880 C.ar    1  UNL1       -0.0617
     20  C15        5.8610   -1.1070    0.6160 C.ar    1  UNL1       -0.0614
     21  C16        4.8850   -1.0980   -0.3360 C.ar    1  UNL1       -0.0568
     22  C17        2.0430    0.7020   -1.7520 C.ar    1  UNL1        0.2753
     23  O2         3.0620    0.6840   -2.4880 O.2     1  UNL1       -0.2655
     24  C18        1.3220    1.8670   -1.7510 C.ar    1  UNL1        0.0503
     25  C19        1.6680    2.9620   -2.4980 C.ar    1  UNL1       -0.0487
     26  C20        0.9170    4.1120   -2.4680 C.ar    1  UNL1       -0.0610
     27  C21       -0.2040    4.1510   -1.6680 C.ar    1  UNL1       -0.0611
     28  C22       -0.5830    3.0410   -0.8910 C.ar    1  UNL1       -0.0516
     29  C23        0.1740    1.9130   -0.9350 C.ar    1  UNL1        0.0195
     30 H          -0.9360   -1.2614    1.2600 H       1  UNL1        0.1494
     31 H          -2.7638    0.2532    2.8649 H       1  UNL1        0.0512
     32 H          -2.5410   -1.4794    2.8975 H       1  UNL1        0.0512
     33 H          -5.1526   -0.9576    3.1326 H       1  UNL1        0.0622
     34 H          -7.1965   -1.2464    1.8995 H       1  UNL1        0.0646
     35 H          -5.0233   -0.9806   -1.6795 H       1  UNL1        0.0646
     36 H          -3.0093   -0.6954   -0.4071 H       1  UNL1        0.0622
     37 H           3.0142   -1.6399   -2.0634 H       1  UNL1        0.0560
     38 H           1.9225   -2.4172   -0.9088 H       1  UNL1        0.0560
     39 H           2.4438   -2.4433    1.4246 H       1  UNL1        0.0621
     40 H           4.1330   -2.4764    3.1325 H       1  UNL1        0.0618
     41 H           6.3321   -1.6176    2.6051 H       1  UNL1        0.0618
     42 H           6.8002   -0.7403    0.3957 H       1  UNL1        0.0618
     43 H           5.0949   -0.7230   -1.2743 H       1  UNL1        0.0621
     44 H           2.5090    2.9222   -3.0948 H       1  UNL1        0.0625
     45 H           1.1875    4.9314   -3.0341 H       1  UNL1        0.0618
     46 H          -0.7758    5.0096   -1.6382 H       1  UNL1        0.0618
     47 H          -1.4248    3.0827   -0.2954 H       1  UNL1        0.0624
@<TRIPOS>BOND
     1     1     2    2
     2     2     3   am
     3     2    12    1
     4     3     4    1
     5     4     5    1
     6     5     6   ar
     7     5    11   ar
     8     6     7   ar
     9     7     8   ar
    10     8     9    1
    11     8    10   ar
    12    10    11   ar
    13    12    13   ar
    14    12    29   ar
    15    13    14   ar
    16    14    15    1
    17    14    22   ar
    18    15    16    1
    19    16    17   ar
    20    16    21   ar
    21    17    18   ar
    22    18    19   ar
    23    19    20   ar
    24    20    21   ar
    25    22    23    2
    26    22    24   ar
    27    24    25   ar
    28    24    29   ar
    29    25    26   ar
    30    26    27   ar
    31    27    28   ar
    32    28    29   ar
    33     3    30    1
    34     4    31    1
    35     4    32    1
    36     6    33    1
    37     7    34    1
    38    10    35    1
    39    11    36    1
    40    15    37    1
    41    15    38    1
    42    17    39    1
    43    18    40    1
    44    19    41    1
    45    20    42    1
    46    21    43    1
    47    25    44    1
    48    26    45    1
    49    27    46    1
    50    28    47    1
@<TRIPOS>MOLECULE
../data/bude_mols_rdkit_confs2/molecule_24.pdb
 47 50 0 0 0
SMALL
GASTEIGER

@<TRIPOS>ATOM
      1  O1         1.8860   -0.6940    1.8900 O.2     1  UNL1       -0.2684
      2  C1         1.4960   -1.1420    0.7380 C.2     1  UNL1        0.2650
      3  N1         2.5120   -1.3660   -0.1850 N.am    1  UNL1       -0.3059
      4  C2         3.9030   -1.1110    0.2180 C.3     1  UNL1        0.0372
      5  C3         4.1890    0.3370    0.2340 C.ar    1  UNL1       -0.0301
      6  C4         5.4250    0.8460    0.5690 C.ar    1  UNL1       -0.0544
      7  C5         5.6830    2.2030    0.5790 C.ar    1  UNL1       -0.0261
      8  C6         4.6920    3.1040    0.2490 C.ar    1  UNL1        0.1234
      9  F1         4.9490    4.4540    0.2590 F       1  UNL1       -0.2055
     10  C7         3.4500    2.6130   -0.0880 C.ar    1  UNL1       -0.0261
     11  C8         3.1990    1.2370   -0.0960 C.ar    1  UNL1       -0.0544
     12  C9         0.0670   -1.3340    0.5780 C.ar    1  UNL1        0.1535
     13  N2        -0.7910   -0.3810    1.0690 N.ar    1  UNL1       -0.1626
     14  N3        -2.1050   -0.4890    0.9760 N.ar    1  UNL1       -0.2239
     15  C10       -2.9930    0.5440    1.5030 C.3     1  UNL1        0.0703
     16  C11       -3.3090    1.6030    0.5550 C.ar    1  UNL1       -0.0260
     17  C12       -4.4450    1.5560   -0.2100 C.ar    1  UNL1       -0.0568
     18  C13       -4.7680    2.5510   -1.1250 C.ar    1  UNL1       -0.0614
     19  C14       -3.9300    3.6110   -1.2690 C.ar    1  UNL1       -0.0617
     20  C15       -2.7740    3.6780   -0.5030 C.ar    1  UNL1       -0.0614
     21  C16       -2.4570    2.6770    0.4110 C.ar    1  UNL1       -0.0568
     22  C17       -2.6790   -1.5510    0.3890 C.ar    1  UNL1        0.2753
     23  O2        -3.9360   -1.6710    0.2900 O.2     1  UNL1       -0.2655
     24  C18       -1.8970   -2.5550   -0.1290 C.ar    1  UNL1        0.0503
     25  C19       -2.5240   -3.6420   -0.6980 C.ar    1  UNL1       -0.0487
     26  C20       -1.7130   -4.6480   -1.1780 C.ar    1  UNL1       -0.0610
     27  C21       -0.3420   -4.5590   -1.0870 C.ar    1  UNL1       -0.0611
     28  C22        0.2540   -3.4360   -0.5010 C.ar    1  UNL1       -0.0516
     29  C23       -0.5110   -2.4220   -0.0190 C.ar    1  UNL1        0.0195
     30 H           2.3038   -1.6893   -1.0913 H       1  UNL1        0.1494
     31 H           4.5622   -1.5908   -0.4749 H       1  UNL1        0.0512
     32 H           4.0503   -1.4998    1.2039 H       1  UNL1        0.0512
     33 H           6.1826    0.1920    0.8206 H       1  UNL1        0.0622
     34 H           6.6226    2.5447    0.8348 H       1  UNL1        0.0646
     35 H           2.6941    3.2695   -0.3381 H       1  UNL1        0.0646
     36 H           2.2609    0.8915   -0.3522 H       1  UNL1        0.0622
     37 H          -2.5227    0.9871    2.3559 H       1  UNL1        0.0560
     38 H          -3.9173    0.0608    1.7421 H       1  UNL1        0.0560
     39 H          -5.0838    0.7526   -0.1028 H       1  UNL1        0.0621
     40 H          -5.6313    2.4858   -1.6867 H       1  UNL1        0.0618
     41 H          -4.1512    4.3607   -1.9428 H       1  UNL1        0.0618
     42 H          -2.1387    4.4838   -0.6131 H       1  UNL1        0.0618
     43 H          -1.5943    2.7383    0.9741 H       1  UNL1        0.0621
     44 H          -3.5524   -3.7003   -0.7618 H       1  UNL1        0.0625
     45 H          -2.1401   -5.4810   -1.6124 H       1  UNL1        0.0618
     46 H           0.2482   -5.3228   -1.4520 H       1  UNL1        0.0618
     47 H           1.2822   -3.3779   -0.4346 H       1  UNL1        0.0624
@<TRIPOS>BOND
     1     1     2    2
     2     2     3   am
     3     2    12    1
     4     3     4    1
     5     4     5    1
     6     5     6   ar
     7     5    11   ar
     8     6     7   ar
     9     7     8   ar
    10     8     9    1
    11     8    10   ar
    12    10    11   ar
    13    12    13   ar
    14    12    29   ar
    15    13    14   ar
    16    14    15    1
    17    14    22   ar
    18    15    16    1
    19    16    17   ar
    20    16    21   ar
    21    17    18   ar
    22    18    19   ar
    23    19    20   ar
    24    20    21   ar
    25    22    23    2
    26    22    24   ar
    27    24    25   ar
    28    24    29   ar
    29    25    26   ar
    30    26    27   ar
    31    27    28   ar
    32    28    29   ar
    33     3    30    1
    34     4    31    1
    35     4    32    1
    36     6    33    1
    37     7    34    1
    38    10    35    1
    39    11    36    1
    40    15    37    1
    41    15    38    1
    42    17    39    1
    43    18    40    1
    44    19    41    1
    45    20    42    1
    46    21    43    1
    47    25    44    1
    48    26    45    1
    49    27    46    1
    50    28    47    1
