@<TRIPOS>MOLECULE
../data/bude_mols_rdkit_confs2/molecule_4.pdb
 44 47 0 0 0
SMALL
GASTEIGER

@<TRIPOS>ATOM
      1  O1         0.7570   -0.9760   -1.5900 O.2     1  UNL1       -0.2684
      2  C1         0.9330   -0.3360   -0.5480 C.2     1  UNL1        0.2654
      3  N1        -0.2810    0.0230    0.1540 N.am    1  UNL1       -0.2992
      4  C2        -1.5600   -0.3760   -0.3920 C.3     1  UNL1        0.0740
      5  C3        -2.3320   -1.2140    0.5530 C.ar    1  UNL1       -0.0228
      6  C4        -2.9740   -2.3620    0.1290 C.ar    1  UNL1       -0.0565
      7  C5        -3.6980   -3.1670    0.9660 C.ar    1  UNL1       -0.0614
      8  C6        -3.8130   -2.8500    2.2920 C.ar    1  UNL1       -0.0617
      9  C7        -3.1840   -1.6990    2.7760 C.ar    1  UNL1       -0.0614
     10  C8        -2.4600   -0.9090    1.8980 C.ar    1  UNL1       -0.0565
     11  C9        -2.2870    0.8730   -0.7450 C.ar    1  UNL1       -0.0228
     12  C10       -1.5520    1.8470   -1.4160 C.ar    1  UNL1       -0.0565
     13  C11       -2.1460    3.0460   -1.7860 C.ar    1  UNL1       -0.0614
     14  C12       -3.4730    3.2380   -1.4720 C.ar    1  UNL1       -0.0617
     15  C13       -4.2240    2.2710   -0.8000 C.ar    1  UNL1       -0.0614
     16  C14       -3.6060    1.1010   -0.4500 C.ar    1  UNL1       -0.0565
     17  C15        2.1770    0.0970    0.0590 C.ar    1  UNL1        0.1533
     18  N2         2.1480    0.8020    1.2260 N.ar    1  UNL1       -0.1656
     19  N3         3.1820    1.2520    1.8800 N.ar    1  UNL1       -0.2420
     20  C16        4.4120    1.0350    1.4110 C.ar    1  UNL1        0.2725
     21  O2         5.4070    1.4620    2.0300 O.2     1  UNL1       -0.2658
     22  C17        4.5430    0.3330    0.2390 C.ar    1  UNL1        0.0501
     23  C18        5.7990    0.0780   -0.2940 C.ar    1  UNL1       -0.0487
     24  C19        5.9540   -0.6230   -1.4680 C.ar    1  UNL1       -0.0610
     25  C20        4.8430   -1.0840   -2.1310 C.ar    1  UNL1       -0.0611
     26  C21        3.5640   -0.8460   -1.6240 C.ar    1  UNL1       -0.0516
     27  C22        3.4310   -0.1540   -0.4680 C.ar    1  UNL1        0.0195
     28 H          -0.2368    0.5336    0.9946 H       1  UNL1        0.1500
     29 H          -1.4195   -0.9875   -1.2587 H       1  UNL1        0.0599
     30 H          -2.9041   -2.6248   -0.8665 H       1  UNL1        0.0621
     31 H          -4.1577   -4.0140    0.5967 H       1  UNL1        0.0618
     32 H          -4.3578   -3.4536    2.9276 H       1  UNL1        0.0618
     33 H          -3.2580   -1.4417    3.7727 H       1  UNL1        0.0618
     34 H          -1.9981   -0.0602    2.2602 H       1  UNL1        0.0621
     35 H          -0.5591    1.6764   -1.6397 H       1  UNL1        0.0621
     36 H          -1.6080    3.7733   -2.2826 H       1  UNL1        0.0618
     37 H          -3.9270    4.1246   -1.7418 H       1  UNL1        0.0618
     38 H          -5.2175    2.4342   -0.5736 H       1  UNL1        0.0618
     39 H          -4.1449    0.3746    0.0469 H       1  UNL1        0.0621
     40 H           3.0554    1.7514    2.7190 H       1  UNL1        0.1921
     41 H           6.6362    0.4222    0.2017 H       1  UNL1        0.0625
     42 H           6.8972   -0.8008   -1.8471 H       1  UNL1        0.0618
     43 H           4.9545   -1.6108   -3.0114 H       1  UNL1        0.0618
     44 H           2.7307   -1.1932   -2.1241 H       1  UNL1        0.0624
@<TRIPOS>BOND
     1     1     2    2
     2     2     3   am
     3     2    17    1
     4     3     4    1
     5     4     5    1
     6     4    11    1
     7     5     6   ar
     8     5    10   ar
     9     6     7   ar
    10     7     8   ar
    11     8     9   ar
    12     9    10   ar
    13    11    12   ar
    14    11    16   ar
    15    12    13   ar
    16    13    14   ar
    17    14    15   ar
    18    15    16   ar
    19    17    18   ar
    20    17    27   ar
    21    18    19   ar
    22    19    20   ar
    23    20    21    2
    24    20    22   ar
    25    22    23   ar
    26    22    27   ar
    27    23    24   ar
    28    24    25   ar
    29    25    26   ar
    30    26    27   ar
    31     3    28    1
    32     4    29    1
    33     6    30    1
    34     7    31    1
    35     8    32    1
    36     9    33    1
    37    10    34    1
    38    12    35    1
    39    13    36    1
    40    14    37    1
    41    15    38    1
    42    16    39    1
    43    19    40    1
    44    23    41    1
    45    24    42    1
    46    25    43    1
    47    26    44    1
@<TRIPOS>MOLECULE
../data/bude_mols_rdkit_confs2/molecule_4.pdb
 44 47 0 0 0
SMALL
GASTEIGER

@<TRIPOS>ATOM
      1  O1         0.2340   -0.2940    2.6050 O.2     1  UNL1       -0.2684
      2  C1         0.7730    0.0640    1.4940 C.2     1  UNL1        0.2654
      3  N1        -0.1150    0.2010    0.4210 N.am    1  UNL1       -0.2992
      4  C2        -1.5490   -0.0640    0.5260 C.3     1  UNL1        0.0740
      5  C3        -1.9760   -1.1730   -0.3490 C.ar    1  UNL1       -0.0228
      6  C4        -1.5420   -1.2580   -1.6550 C.ar    1  UNL1       -0.0565
      7  C5        -1.9650   -2.3190   -2.4540 C.ar    1  UNL1       -0.0614
      8  C6        -2.8050   -3.2790   -1.9620 C.ar    1  UNL1       -0.0617
      9  C7        -3.2520   -3.2160   -0.6610 C.ar    1  UNL1       -0.0614
     10  C8        -2.8240   -2.1600    0.1160 C.ar    1  UNL1       -0.0565
     11  C9        -2.3420    1.1550    0.2740 C.ar    1  UNL1       -0.0228
     12  C10       -2.0790    2.0200   -0.7670 C.ar    1  UNL1       -0.0565
     13  C11       -2.8460    3.1440   -0.9630 C.ar    1  UNL1       -0.0614
     14  C12       -3.8980    3.4320   -0.1200 C.ar    1  UNL1       -0.0617
     15  C13       -4.1850    2.5900    0.9260 C.ar    1  UNL1       -0.0614
     16  C14       -3.4000    1.4710    1.0980 C.ar    1  UNL1       -0.0565
     17  C15        2.2010    0.2780    1.5220 C.ar    1  UNL1        0.1533
     18  N2         2.6960    0.9180    2.6430 N.ar    1  UNL1       -0.1656
     19  N3         3.9480    1.1820    2.8400 N.ar    1  UNL1       -0.2420
     20  C16        4.8290    0.8230    1.9190 C.ar    1  UNL1        0.2725
     21  O2         6.0480    1.0900    2.1280 O.2     1  UNL1       -0.2658
     22  C17        4.4510    0.1720    0.7540 C.ar    1  UNL1        0.0501
     23  C18        5.3730   -0.2170   -0.1740 C.ar    1  UNL1       -0.0487
     24  C19        4.9540   -0.8930   -1.3100 C.ar    1  UNL1       -0.0610
     25  C20        3.6240   -1.1610   -1.4840 C.ar    1  UNL1       -0.0611
     26  C21        2.6530   -0.7720   -0.5460 C.ar    1  UNL1       -0.0516
     27  C22        3.0950   -0.1030    0.5650 C.ar    1  UNL1        0.0195
     28 H           0.2442    0.4905   -0.4487 H       1  UNL1        0.1500
     29 H          -1.7349   -0.3724    1.5336 H       1  UNL1        0.0599
     30 H          -0.9076   -0.5402   -2.0388 H       1  UNL1        0.0621
     31 H          -1.6393   -2.3808   -3.4313 H       1  UNL1        0.0618
     32 H          -3.1063   -4.0565   -2.5700 H       1  UNL1        0.0618
     33 H          -3.8864   -3.9353   -0.2800 H       1  UNL1        0.0618
     34 H          -3.1532   -2.1042    1.0925 H       1  UNL1        0.0621
     35 H          -1.2952    1.8209   -1.4082 H       1  UNL1        0.0621
     36 H          -2.6322    3.7781   -1.7486 H       1  UNL1        0.0618
     37 H          -4.4683    4.2781   -0.2746 H       1  UNL1        0.0618
     38 H          -4.9687    2.7903    1.5669 H       1  UNL1        0.0618
     39 H          -3.6153    0.8375    1.8837 H       1  UNL1        0.0621
     40 H           4.2399    1.6416    3.6602 H       1  UNL1        0.1921
     41 H           6.3739   -0.0098   -0.0315 H       1  UNL1        0.0625
     42 H           5.6412   -1.1919   -2.0195 H       1  UNL1        0.0618
     43 H           3.3238   -1.6658   -2.3326 H       1  UNL1        0.0618
     44 H           1.6523   -0.9807   -0.6874 H       1  UNL1        0.0624
@<TRIPOS>BOND
     1     1     2    2
     2     2     3   am
     3     2    17    1
     4     3     4    1
     5     4     5    1
     6     4    11    1
     7     5     6   ar
     8     5    10   ar
     9     6     7   ar
    10     7     8   ar
    11     8     9   ar
    12     9    10   ar
    13    11    12   ar
    14    11    16   ar
    15    12    13   ar
    16    13    14   ar
    17    14    15   ar
    18    15    16   ar
    19    17    18   ar
    20    17    27   ar
    21    18    19   ar
    22    19    20   ar
    23    20    21    2
    24    20    22   ar
    25    22    23   ar
    26    22    27   ar
    27    23    24   ar
    28    24    25   ar
    29    25    26   ar
    30    26    27   ar
    31     3    28    1
    32     4    29    1
    33     6    30    1
    34     7    31    1
    35     8    32    1
    36     9    33    1
    37    10    34    1
    38    12    35    1
    39    13    36    1
    40    14    37    1
    41    15    38    1
    42    16    39    1
    43    19    40    1
    44    23    41    1
    45    24    42    1
    46    25    43    1
    47    26    44    1
@<TRIPOS>MOLECULE
../data/bude_mols_rdkit_confs2/molecule_4.pdb
 44 47 0 0 0
SMALL
GASTEIGER

@<TRIPOS>ATOM
      1  O1         0.1790   -1.8970   -1.8630 O.2     1  UNL1       -0.2684
      2  C1         0.7680   -0.9580   -1.1840 C.2     1  UNL1        0.2654
      3  N1        -0.1360   -0.1660   -0.4600 N.am    1  UNL1       -0.2992
      4  C2        -1.5710   -0.3830   -0.4450 C.3     1  UNL1        0.0740
      5  C3        -2.0990   -0.6300    0.8970 C.ar    1  UNL1       -0.0228
      6  C4        -1.7500    0.1090    2.0090 C.ar    1  UNL1       -0.0565
      7  C5        -2.2830   -0.1690    3.2650 C.ar    1  UNL1       -0.0614
      8  C6        -3.1880   -1.2100    3.4210 C.ar    1  UNL1       -0.0617
      9  C7        -3.5480   -1.9580    2.3160 C.ar    1  UNL1       -0.0614
     10  C8        -3.0040   -1.6560    1.1040 C.ar    1  UNL1       -0.0565
     11  C9        -2.1940    0.7880   -1.1190 C.ar    1  UNL1       -0.0228
     12  C10       -3.2030    0.6340   -2.0580 C.ar    1  UNL1       -0.0565
     13  C11       -3.7880    1.7100   -2.6890 C.ar    1  UNL1       -0.0614
     14  C12       -3.3850    2.9770   -2.4050 C.ar    1  UNL1       -0.0617
     15  C13       -2.3820    3.1590   -1.4740 C.ar    1  UNL1       -0.0614
     16  C14       -1.8020    2.0830   -0.8470 C.ar    1  UNL1       -0.0565
     17  C15        2.2030   -0.8380   -1.2560 C.ar    1  UNL1        0.1533
     18  N2         2.7840   -1.0100   -2.4640 N.ar    1  UNL1       -0.1656
     19  N3         4.0640   -0.9490   -2.6950 N.ar    1  UNL1       -0.2420
     20  C16        4.8700   -0.6960   -1.6520 C.ar    1  UNL1        0.2725
     21  O2         6.1160   -0.6280   -1.8430 O.2     1  UNL1       -0.2658
     22  C17        4.4090   -0.5020   -0.3620 C.ar    1  UNL1        0.0501
     23  C18        5.2610   -0.2710    0.6940 C.ar    1  UNL1       -0.0487
     24  C19        4.7870   -0.1120    1.9770 C.ar    1  UNL1       -0.0610
     25  C20        3.4260   -0.1950    2.1520 C.ar    1  UNL1       -0.0611
     26  C21        2.5570   -0.4280    1.0890 C.ar    1  UNL1       -0.0516
     27  C22        3.0200   -0.5840   -0.1930 C.ar    1  UNL1        0.0195
     28 H           0.2246    0.5816    0.0695 H       1  UNL1        0.1500
     29 H          -1.8152   -1.2798   -0.9751 H       1  UNL1        0.0599
     30 H          -1.0783    0.8858    1.9073 H       1  UNL1        0.0621
     31 H          -2.0051    0.3992    4.0804 H       1  UNL1        0.0618
     32 H          -3.5864   -1.4224    4.3490 H       1  UNL1        0.0618
     33 H          -4.2204   -2.7355    2.4078 H       1  UNL1        0.0618
     34 H          -3.2838   -2.2270    0.2912 H       1  UNL1        0.0621
     35 H          -3.5262   -0.3178   -2.2917 H       1  UNL1        0.0621
     36 H          -4.5368    1.5532   -3.3816 H       1  UNL1        0.0618
     37 H          -3.8199    3.7860   -2.8756 H       1  UNL1        0.0618
     38 H          -2.0643    4.1142   -1.2465 H       1  UNL1        0.0618
     39 H          -1.0542    2.2472   -0.1550 H       1  UNL1        0.0621
     40 H           4.4268   -1.0833   -3.6003 H       1  UNL1        0.1921
     41 H           6.2768   -0.2158    0.5205 H       1  UNL1        0.0625
     42 H           5.4239    0.0614    2.7703 H       1  UNL1        0.0618
     43 H           3.0361   -0.0811    3.1007 H       1  UNL1        0.0618
     44 H           1.5425   -0.4846    1.2696 H       1  UNL1        0.0624
@<TRIPOS>BOND
     1     1     2    2
     2     2     3   am
     3     2    17    1
     4     3     4    1
     5     4     5    1
     6     4    11    1
     7     5     6   ar
     8     5    10   ar
     9     6     7   ar
    10     7     8   ar
    11     8     9   ar
    12     9    10   ar
    13    11    12   ar
    14    11    16   ar
    15    12    13   ar
    16    13    14   ar
    17    14    15   ar
    18    15    16   ar
    19    17    18   ar
    20    17    27   ar
    21    18    19   ar
    22    19    20   ar
    23    20    21    2
    24    20    22   ar
    25    22    23   ar
    26    22    27   ar
    27    23    24   ar
    28    24    25   ar
    29    25    26   ar
    30    26    27   ar
    31     3    28    1
    32     4    29    1
    33     6    30    1
    34     7    31    1
    35     8    32    1
    36     9    33    1
    37    10    34    1
    38    12    35    1
    39    13    36    1
    40    14    37    1
    41    15    38    1
    42    16    39    1
    43    19    40    1
    44    23    41    1
    45    24    42    1
    46    25    43    1
    47    26    44    1
@<TRIPOS>MOLECULE
../data/bude_mols_rdkit_confs2/molecule_4.pdb
 44 47 0 0 0
SMALL
GASTEIGER

@<TRIPOS>ATOM
      1  O1         0.6210   -1.0060   -2.5230 O.2     1  UNL1       -0.2684
      2  C1         0.9830   -0.6820   -1.3210 C.2     1  UNL1        0.2654
      3  N1        -0.0680   -0.3470   -0.4380 N.am    1  UNL1       -0.2992
      4  C2        -1.4350   -0.3730   -0.9600 C.3     1  UNL1        0.0740
      5  C3        -2.1160   -1.4980   -0.2210 C.ar    1  UNL1       -0.0228
      6  C4        -2.8980   -2.4140   -0.8710 C.ar    1  UNL1       -0.0565
      7  C5        -3.5110   -3.4260   -0.2040 C.ar    1  UNL1       -0.0614
      8  C6        -3.3550   -3.5520    1.1630 C.ar    1  UNL1       -0.0617
      9  C7        -2.5790   -2.6510    1.8350 C.ar    1  UNL1       -0.0614
     10  C8        -1.9540   -1.6170    1.1480 C.ar    1  UNL1       -0.0565
     11  C9        -2.1410    0.9090   -0.7110 C.ar    1  UNL1       -0.0228
     12  C10       -1.4880    2.0940   -0.9770 C.ar    1  UNL1       -0.0565
     13  C11       -2.0990    3.3200   -0.7610 C.ar    1  UNL1       -0.0614
     14  C12       -3.3850    3.4030   -0.2720 C.ar    1  UNL1       -0.0617
     15  C13       -4.0470    2.2240   -0.0020 C.ar    1  UNL1       -0.0614
     16  C14       -3.4260    1.0000   -0.2220 C.ar    1  UNL1       -0.0565
     17  C15        2.3970   -0.7040   -1.0050 C.ar    1  UNL1        0.1533
     18  N2         3.1380   -1.7400   -1.4940 N.ar    1  UNL1       -0.1656
     19  N3         4.4450   -1.8500   -1.2760 N.ar    1  UNL1       -0.2420
     20  C16        5.1270   -0.9470   -0.5590 C.ar    1  UNL1        0.2725
     21  O2         6.3530   -1.0920   -0.3790 O.2     1  UNL1       -0.2658
     22  C17        4.4320    0.1180   -0.0450 C.ar    1  UNL1        0.0501
     23  C18        5.0910    1.0840    0.6700 C.ar    1  UNL1       -0.0487
     24  C19        4.4470    2.1930    1.1830 C.ar    1  UNL1       -0.0610
     25  C20        3.0810    2.2980    0.9440 C.ar    1  UNL1       -0.0611
     26  C21        2.3960    1.3430    0.2310 C.ar    1  UNL1       -0.0516
     27  C22        3.0460    0.2410   -0.2730 C.ar    1  UNL1        0.0195
     28 H           0.1135   -0.1038    0.4986 H       1  UNL1        0.1500
     29 H          -1.4424   -0.5147   -2.0205 H       1  UNL1        0.0599
     30 H          -3.0249   -2.3339   -1.8920 H       1  UNL1        0.0621
     31 H          -4.0950   -4.1028   -0.7198 H       1  UNL1        0.0618
     32 H          -3.8205   -4.3198    1.6717 H       1  UNL1        0.0618
     33 H          -2.4564   -2.7383    2.8560 H       1  UNL1        0.0618
     34 H          -1.3689   -0.9377    1.6591 H       1  UNL1        0.0621
     35 H          -0.5241    2.0679   -1.3447 H       1  UNL1        0.0621
     36 H          -1.5806    4.1874   -0.9705 H       1  UNL1        0.0618
     37 H          -3.8372    4.3170   -0.1133 H       1  UNL1        0.0618
     38 H          -5.0107    2.2505    0.3662 H       1  UNL1        0.0618
     39 H          -3.9436    0.1321   -0.0125 H       1  UNL1        0.0621
     40 H           4.9275   -2.6205   -1.6540 H       1  UNL1        0.1921
     41 H           6.1050    0.9789    0.8309 H       1  UNL1        0.0625
     42 H           4.9569    2.9119    1.7199 H       1  UNL1        0.0618
     43 H           2.5680    3.1145    1.3117 H       1  UNL1        0.0618
     44 H           1.3824    1.4543    0.0722 H       1  UNL1        0.0624
@<TRIPOS>BOND
     1     1     2    2
     2     2     3   am
     3     2    17    1
     4     3     4    1
     5     4     5    1
     6     4    11    1
     7     5     6   ar
     8     5    10   ar
     9     6     7   ar
    10     7     8   ar
    11     8     9   ar
    12     9    10   ar
    13    11    12   ar
    14    11    16   ar
    15    12    13   ar
    16    13    14   ar
    17    14    15   ar
    18    15    16   ar
    19    17    18   ar
    20    17    27   ar
    21    18    19   ar
    22    19    20   ar
    23    20    21    2
    24    20    22   ar
    25    22    23   ar
    26    22    27   ar
    27    23    24   ar
    28    24    25   ar
    29    25    26   ar
    30    26    27   ar
    31     3    28    1
    32     4    29    1
    33     6    30    1
    34     7    31    1
    35     8    32    1
    36     9    33    1
    37    10    34    1
    38    12    35    1
    39    13    36    1
    40    14    37    1
    41    15    38    1
    42    16    39    1
    43    19    40    1
    44    23    41    1
    45    24    42    1
    46    25    43    1
    47    26    44    1
@<TRIPOS>MOLECULE
../data/bude_mols_rdkit_confs2/molecule_4.pdb
 44 47 0 0 0
SMALL
GASTEIGER

@<TRIPOS>ATOM
      1  O1         0.4730   -1.6290   -2.1920 O.2     1  UNL1       -0.2684
      2  C1         0.9400   -0.7990   -1.3210 C.2     1  UNL1        0.2654
      3  N1        -0.0210   -0.0850   -0.5980 N.am    1  UNL1       -0.2992
      4  C2        -1.4540   -0.2650   -0.7760 C.3     1  UNL1        0.0740
      5  C3        -2.1200   -0.6870    0.4770 C.ar    1  UNL1       -0.0228
      6  C4        -1.7940   -0.0410    1.6470 C.ar    1  UNL1       -0.0565
      7  C5        -2.4030   -0.4190    2.8240 C.ar    1  UNL1       -0.0614
      8  C6        -3.3360   -1.4290    2.8730 C.ar    1  UNL1       -0.0617
      9  C7        -3.6690   -2.0820    1.7050 C.ar    1  UNL1       -0.0614
     10  C8        -3.0530   -1.7010    0.5100 C.ar    1  UNL1       -0.0565
     11  C9        -2.0940    0.9620   -1.3230 C.ar    1  UNL1       -0.0228
     12  C10       -3.2700    1.3950   -0.7570 C.ar    1  UNL1       -0.0565
     13  C11       -3.9140    2.5290   -1.2220 C.ar    1  UNL1       -0.0614
     14  C12       -3.3400    3.2120   -2.2720 C.ar    1  UNL1       -0.0617
     15  C13       -2.1610    2.7930   -2.8530 C.ar    1  UNL1       -0.0614
     16  C14       -1.5340    1.6460   -2.3630 C.ar    1  UNL1       -0.0565
     17  C15        2.3830   -0.6760   -1.1800 C.ar    1  UNL1        0.1533
     18  N2         3.1700   -0.6180   -2.2970 N.ar    1  UNL1       -0.1656
     19  N3         4.4740   -0.5230   -2.2290 N.ar    1  UNL1       -0.2420
     20  C16        5.1180   -0.4780   -1.0580 C.ar    1  UNL1        0.2725
     21  O2         6.3810   -0.3850   -0.9730 O.2     1  UNL1       -0.2658
     22  C17        4.4090   -0.5340    0.1410 C.ar    1  UNL1        0.0501
     23  C18        5.0730   -0.5180    1.3490 C.ar    1  UNL1       -0.0487
     24  C19        4.3480   -0.6090    2.5160 C.ar    1  UNL1       -0.0610
     25  C20        2.9780   -0.7150    2.4580 C.ar    1  UNL1       -0.0611
     26  C21        2.3420   -0.7280    1.2340 C.ar    1  UNL1       -0.0516
     27  C22        3.0250   -0.6350    0.0360 C.ar    1  UNL1        0.0195
     28 H           0.2880    0.5733    0.0656 H       1  UNL1        0.1500
     29 H          -1.5784   -1.0524   -1.4897 H       1  UNL1        0.0599
     30 H          -1.0983    0.7213    1.6433 H       1  UNL1        0.0621
     31 H          -2.1512    0.0712    3.6966 H       1  UNL1        0.0618
     32 H          -3.7784   -1.6930    3.7672 H       1  UNL1        0.0618
     33 H          -4.3654   -2.8436    1.7133 H       1  UNL1        0.0618
     34 H          -3.3015   -2.1884   -0.3650 H       1  UNL1        0.0621
     35 H          -3.6798    0.8654    0.0282 H       1  UNL1        0.0621
     36 H          -4.7963    2.8526   -0.7955 H       1  UNL1        0.0618
     37 H          -3.8045    4.0597   -2.6335 H       1  UNL1        0.0618
     38 H          -1.7484    3.3199   -3.6386 H       1  UNL1        0.0618
     39 H          -0.6516    1.3169   -2.7849 H       1  UNL1        0.0621
     40 H           4.9950   -0.4836   -3.0634 H       1  UNL1        0.1921
     41 H           6.1015   -0.4387    1.3783 H       1  UNL1        0.0625
     42 H           4.8297   -0.5977    3.4286 H       1  UNL1        0.0618
     43 H           2.4272   -0.7846    3.3280 H       1  UNL1        0.0618
     44 H           1.3135   -0.8106    1.2119 H       1  UNL1        0.0624
@<TRIPOS>BOND
     1     1     2    2
     2     2     3   am
     3     2    17    1
     4     3     4    1
     5     4     5    1
     6     4    11    1
     7     5     6   ar
     8     5    10   ar
     9     6     7   ar
    10     7     8   ar
    11     8     9   ar
    12     9    10   ar
    13    11    12   ar
    14    11    16   ar
    15    12    13   ar
    16    13    14   ar
    17    14    15   ar
    18    15    16   ar
    19    17    18   ar
    20    17    27   ar
    21    18    19   ar
    22    19    20   ar
    23    20    21    2
    24    20    22   ar
    25    22    23   ar
    26    22    27   ar
    27    23    24   ar
    28    24    25   ar
    29    25    26   ar
    30    26    27   ar
    31     3    28    1
    32     4    29    1
    33     6    30    1
    34     7    31    1
    35     8    32    1
    36     9    33    1
    37    10    34    1
    38    12    35    1
    39    13    36    1
    40    14    37    1
    41    15    38    1
    42    16    39    1
    43    19    40    1
    44    23    41    1
    45    24    42    1
    46    25    43    1
    47    26    44    1
@<TRIPOS>MOLECULE
../data/bude_mols_rdkit_confs2/molecule_4.pdb
 44 47 0 0 0
SMALL
GASTEIGER

@<TRIPOS>ATOM
      1  O1         0.5400   -1.4420    2.2370 O.2     1  UNL1       -0.2684
      2  C1         0.9180   -0.6170    1.3140 C.2     1  UNL1        0.2654
      3  N1        -0.0590    0.0310    0.5400 N.am    1  UNL1       -0.2992
      4  C2        -1.4820   -0.2170    0.7290 C.3     1  UNL1        0.0740
      5  C3        -2.2090    0.9810    1.1330 C.ar    1  UNL1       -0.0228
      6  C4        -1.7540    1.8490    2.1020 C.ar    1  UNL1       -0.0565
      7  C5        -2.4560    2.9750    2.4680 C.ar    1  UNL1       -0.0614
      8  C6        -3.6550    3.2770    1.8720 C.ar    1  UNL1       -0.0617
      9  C7        -4.1320    2.4260    0.9010 C.ar    1  UNL1       -0.0614
     10  C8        -3.4070    1.2940    0.5450 C.ar    1  UNL1       -0.0565
     11  C9        -2.0670   -0.8540   -0.4940 C.ar    1  UNL1       -0.0228
     12  C10       -2.9190   -1.9290   -0.3860 C.ar    1  UNL1       -0.0565
     13  C11       -3.4670   -2.5280   -1.4930 C.ar    1  UNL1       -0.0614
     14  C12       -3.1750   -2.0630   -2.7570 C.ar    1  UNL1       -0.0617
     15  C13       -2.3230   -0.9880   -2.8740 C.ar    1  UNL1       -0.0614
     16  C14       -1.7830   -0.3990   -1.7590 C.ar    1  UNL1       -0.0565
     17  C15        2.3590   -0.4730    1.2200 C.ar    1  UNL1        0.1533
     18  N2         3.0960   -0.4060    2.3780 N.ar    1  UNL1       -0.1656
     19  N3         4.3990   -0.2920    2.4110 N.ar    1  UNL1       -0.2420
     20  C16        5.1460   -0.2290    1.2980 C.ar    1  UNL1        0.2725
     21  O2         6.3990   -0.1170    1.3710 O.2     1  UNL1       -0.2658
     22  C17        4.4810   -0.2930    0.0840 C.ar    1  UNL1        0.0501
     23  C18        5.2140   -0.2610   -1.0710 C.ar    1  UNL1       -0.0487
     24  C19        4.5830   -0.3550   -2.2940 C.ar    1  UNL1       -0.0610
     25  C20        3.2170   -0.4800   -2.3170 C.ar    1  UNL1       -0.0611
     26  C21        2.4560   -0.5130   -1.1500 C.ar    1  UNL1       -0.0516
     27  C22        3.0880   -0.4160    0.0550 C.ar    1  UNL1        0.0195
     28 H           0.2265    0.6718   -0.1507 H       1  UNL1        0.1500
     29 H          -1.5886   -0.9048    1.5417 H       1  UNL1        0.0599
     30 H          -0.8561    1.6478    2.5693 H       1  UNL1        0.0621
     31 H          -2.0770    3.5984    3.1979 H       1  UNL1        0.0618
     32 H          -4.1847    4.1197    2.1446 H       1  UNL1        0.0618
     33 H          -5.0306    2.6287    0.4357 H       1  UNL1        0.0618
     34 H          -3.7830    0.6694   -0.1854 H       1  UNL1        0.0621
     35 H          -3.1519   -2.2942    0.5507 H       1  UNL1        0.0621
     36 H          -4.1026   -3.3328   -1.3777 H       1  UNL1        0.0618
     37 H          -3.5840   -2.5086   -3.5932 H       1  UNL1        0.0618
     38 H          -2.0882   -0.6216   -3.8098 H       1  UNL1        0.0618
     39 H          -1.1475    0.4061   -1.8732 H       1  UNL1        0.0621
     40 H           4.8486   -0.2509    3.2859 H       1  UNL1        0.1921
     41 H           6.2407   -0.1664   -1.0270 H       1  UNL1        0.0625
     42 H           5.1259   -0.3318   -3.1714 H       1  UNL1        0.0618
     43 H           2.7375   -0.5519   -3.2280 H       1  UNL1        0.0618
     44 H           1.4296   -0.6094   -1.1967 H       1  UNL1        0.0624
@<TRIPOS>BOND
     1     1     2    2
     2     2     3   am
     3     2    17    1
     4     3     4    1
     5     4     5    1
     6     4    11    1
     7     5     6   ar
     8     5    10   ar
     9     6     7   ar
    10     7     8   ar
    11     8     9   ar
    12     9    10   ar
    13    11    12   ar
    14    11    16   ar
    15    12    13   ar
    16    13    14   ar
    17    14    15   ar
    18    15    16   ar
    19    17    18   ar
    20    17    27   ar
    21    18    19   ar
    22    19    20   ar
    23    20    21    2
    24    20    22   ar
    25    22    23   ar
    26    22    27   ar
    27    23    24   ar
    28    24    25   ar
    29    25    26   ar
    30    26    27   ar
    31     3    28    1
    32     4    29    1
    33     6    30    1
    34     7    31    1
    35     8    32    1
    36     9    33    1
    37    10    34    1
    38    12    35    1
    39    13    36    1
    40    14    37    1
    41    15    38    1
    42    16    39    1
    43    19    40    1
    44    23    41    1
    45    24    42    1
    46    25    43    1
    47    26    44    1
@<TRIPOS>MOLECULE
../data/bude_mols_rdkit_confs2/molecule_4.pdb
 44 47 0 0 0
SMALL
GASTEIGER

@<TRIPOS>ATOM
      1  O1         0.9310    0.5880   -1.6150 O.2     1  UNL1       -0.2684
      2  C1         0.9280    0.2240   -0.4450 C.2     1  UNL1        0.2654
      3  N1        -0.3480    0.0070    0.1460 N.am    1  UNL1       -0.2992
      4  C2        -1.5960    0.1980   -0.5720 C.3     1  UNL1        0.0740
      5  C3        -2.2690   -1.1200   -0.6730 C.ar    1  UNL1       -0.0228
      6  C4        -1.4740   -2.1970   -1.0380 C.ar    1  UNL1       -0.0565
      7  C5        -2.0070   -3.4630   -1.1590 C.ar    1  UNL1       -0.0614
      8  C6        -3.3610   -3.6780   -0.9150 C.ar    1  UNL1       -0.0617
      9  C7        -4.1420   -2.5970   -0.5530 C.ar    1  UNL1       -0.0614
     10  C8        -3.5910   -1.3370   -0.4370 C.ar    1  UNL1       -0.0565
     11  C9        -2.3770    1.2060    0.1330 C.ar    1  UNL1       -0.0228
     12  C10       -2.9950    2.2060   -0.5810 C.ar    1  UNL1       -0.0565
     13  C11       -3.7510    3.1960    0.0000 C.ar    1  UNL1       -0.0614
     14  C12       -3.8850    3.1700    1.3850 C.ar    1  UNL1       -0.0617
     15  C13       -3.2760    2.1790    2.1290 C.ar    1  UNL1       -0.0614
     16  C14       -2.5220    1.1980    1.5000 C.ar    1  UNL1       -0.0565
     17  C15        2.1060    0.0050    0.3580 C.ar    1  UNL1        0.1533
     18  N2         1.9410   -0.4030    1.6580 N.ar    1  UNL1       -0.1656
     19  N3         2.9870   -0.6090    2.4060 N.ar    1  UNL1       -0.2420
     20  C16        4.2540   -0.4490    1.9990 C.ar    1  UNL1        0.2725
     21  O2         5.2360   -0.6580    2.7540 O.2     1  UNL1       -0.2658
     22  C17        4.4960   -0.0400    0.7040 C.ar    1  UNL1        0.0501
     23  C18        5.8110    0.1310    0.2650 C.ar    1  UNL1       -0.0487
     24  C19        6.0640    0.5370   -1.0220 C.ar    1  UNL1       -0.0610
     25  C20        4.9820    0.7610   -1.8310 C.ar    1  UNL1       -0.0611
     26  C21        3.6640    0.5890   -1.3910 C.ar    1  UNL1       -0.0516
     27  C22        3.4010    0.1840   -0.1100 C.ar    1  UNL1        0.0195
     28 H          -0.3867   -0.2862    1.0850 H       1  UNL1        0.1500
     29 H          -1.4530    0.5578   -1.5695 H       1  UNL1        0.0599
     30 H          -0.4694   -2.0484   -1.2216 H       1  UNL1        0.0621
     31 H          -1.4011   -4.2529   -1.4310 H       1  UNL1        0.0618
     32 H          -3.7709   -4.6211   -1.0023 H       1  UNL1        0.0618
     33 H          -5.1480   -2.7333   -0.3674 H       1  UNL1        0.0618
     34 H          -4.1935   -0.5442   -0.1660 H       1  UNL1        0.0621
     35 H          -2.8853    2.2134   -1.6071 H       1  UNL1        0.0621
     36 H          -4.2017    3.9299   -0.5686 H       1  UNL1        0.0618
     37 H          -4.4436    3.8966    1.8594 H       1  UNL1        0.0618
     38 H          -3.3817    2.1677    3.1555 H       1  UNL1        0.0618
     39 H          -2.0685    0.4598    2.0607 H       1  UNL1        0.0621
     40 H           2.8369   -0.9023    3.3337 H       1  UNL1        0.1921
     41 H           6.5957   -0.0486    0.9108 H       1  UNL1        0.0625
     42 H           7.0285    0.6678   -1.3651 H       1  UNL1        0.0618
     43 H           5.1444    1.0685   -2.8026 H       1  UNL1        0.0618
     44 H           2.8819    0.7696   -2.0397 H       1  UNL1        0.0624
@<TRIPOS>BOND
     1     1     2    2
     2     2     3   am
     3     2    17    1
     4     3     4    1
     5     4     5    1
     6     4    11    1
     7     5     6   ar
     8     5    10   ar
     9     6     7   ar
    10     7     8   ar
    11     8     9   ar
    12     9    10   ar
    13    11    12   ar
    14    11    16   ar
    15    12    13   ar
    16    13    14   ar
    17    14    15   ar
    18    15    16   ar
    19    17    18   ar
    20    17    27   ar
    21    18    19   ar
    22    19    20   ar
    23    20    21    2
    24    20    22   ar
    25    22    23   ar
    26    22    27   ar
    27    23    24   ar
    28    24    25   ar
    29    25    26   ar
    30    26    27   ar
    31     3    28    1
    32     4    29    1
    33     6    30    1
    34     7    31    1
    35     8    32    1
    36     9    33    1
    37    10    34    1
    38    12    35    1
    39    13    36    1
    40    14    37    1
    41    15    38    1
    42    16    39    1
    43    19    40    1
    44    23    41    1
    45    24    42    1
    46    25    43    1
    47    26    44    1
@<TRIPOS>MOLECULE
../data/bude_mols_rdkit_confs2/molecule_4.pdb
 44 47 0 0 0
SMALL
GASTEIGER

@<TRIPOS>ATOM
      1  O1         1.0480    0.6440    1.4740 O.2     1  UNL1       -0.2684
      2  C1         1.0250    0.1800    0.3300 C.2     1  UNL1        0.2654
      3  N1        -0.2780   -0.1310   -0.2370 N.am    1  UNL1       -0.2992
      4  C2        -1.4450    0.1150    0.5540 C.3     1  UNL1        0.0740
      5  C3        -2.3260    1.1570   -0.0550 C.ar    1  UNL1       -0.0228
      6  C4        -2.8860    2.1760    0.6940 C.ar    1  UNL1       -0.0565
      7  C5        -3.6920    3.1450    0.1830 C.ar    1  UNL1       -0.0614
      8  C6        -3.9920    3.1410   -1.1690 C.ar    1  UNL1       -0.0617
      9  C7        -3.4510    2.1400   -1.9490 C.ar    1  UNL1       -0.0614
     10  C8        -2.6260    1.1540   -1.4120 C.ar    1  UNL1       -0.0565
     11  C9        -2.2150   -1.1430    0.8110 C.ar    1  UNL1       -0.0228
     12  C10       -2.4570   -2.0420   -0.2030 C.ar    1  UNL1       -0.0565
     13  C11       -3.1750   -3.2060    0.0580 C.ar    1  UNL1       -0.0614
     14  C12       -3.6510   -3.4680    1.3380 C.ar    1  UNL1       -0.0617
     15  C13       -3.4140   -2.5810    2.3460 C.ar    1  UNL1       -0.0614
     16  C14       -2.7010   -1.4340    2.0670 C.ar    1  UNL1       -0.0565
     17  C15        2.2050   -0.0700   -0.4740 C.ar    1  UNL1        0.1533
     18  N2         2.0570   -0.5910   -1.7390 N.ar    1  UNL1       -0.1656
     19  N3         3.0730   -0.8470   -2.5310 N.ar    1  UNL1       -0.2420
     20  C16        4.3440   -0.6180   -2.1640 C.ar    1  UNL1        0.2725
     21  O2         5.3260   -0.8550   -2.9040 O.2     1  UNL1       -0.2658
     22  C17        4.5810   -0.0950   -0.9080 C.ar    1  UNL1        0.0501
     23  C18        5.8780    0.1510   -0.5000 C.ar    1  UNL1       -0.0487
     24  C19        6.1320    0.6720    0.7490 C.ar    1  UNL1       -0.0610
     25  C20        5.0800    0.9470    1.5920 C.ar    1  UNL1       -0.0611
     26  C21        3.7790    0.6870    1.1540 C.ar    1  UNL1       -0.0516
     27  C22        3.4950    0.1680   -0.0870 C.ar    1  UNL1        0.0195
     28 H          -0.3554   -0.5027   -1.1453 H       1  UNL1        0.1500
     29 H          -1.1008    0.4906    1.4949 H       1  UNL1        0.0599
     30 H          -2.6791    2.2027    1.7047 H       1  UNL1        0.0621
     31 H          -4.0774    3.8782    0.7985 H       1  UNL1        0.0618
     32 H          -4.6017    3.8648   -1.5805 H       1  UNL1        0.0618
     33 H          -3.6634    2.1210   -2.9587 H       1  UNL1        0.0618
     34 H          -2.2367    0.4195   -2.0235 H       1  UNL1        0.0621
     35 H          -2.1067   -1.8535   -1.1553 H       1  UNL1        0.0621
     36 H          -3.3551   -3.8788   -0.7035 H       1  UNL1        0.0618
     37 H          -4.1828   -4.3325    1.5247 H       1  UNL1        0.0618
     38 H          -3.7618   -2.7646    3.3001 H       1  UNL1        0.0618
     39 H          -2.5238   -0.7646    2.8322 H       1  UNL1        0.0621
     40 H           2.8964   -1.2198   -3.4249 H       1  UNL1        0.1921
     41 H           6.6629   -0.0575   -1.1367 H       1  UNL1        0.0625
     42 H           7.1021    0.8545    1.0499 H       1  UNL1        0.0618
     43 H           5.2490    1.3386    2.5317 H       1  UNL1        0.0618
     44 H           2.9946    0.8942    1.7918 H       1  UNL1        0.0624
@<TRIPOS>BOND
     1     1     2    2
     2     2     3   am
     3     2    17    1
     4     3     4    1
     5     4     5    1
     6     4    11    1
     7     5     6   ar
     8     5    10   ar
     9     6     7   ar
    10     7     8   ar
    11     8     9   ar
    12     9    10   ar
    13    11    12   ar
    14    11    16   ar
    15    12    13   ar
    16    13    14   ar
    17    14    15   ar
    18    15    16   ar
    19    17    18   ar
    20    17    27   ar
    21    18    19   ar
    22    19    20   ar
    23    20    21    2
    24    20    22   ar
    25    22    23   ar
    26    22    27   ar
    27    23    24   ar
    28    24    25   ar
    29    25    26   ar
    30    26    27   ar
    31     3    28    1
    32     4    29    1
    33     6    30    1
    34     7    31    1
    35     8    32    1
    36     9    33    1
    37    10    34    1
    38    12    35    1
    39    13    36    1
    40    14    37    1
    41    15    38    1
    42    16    39    1
    43    19    40    1
    44    23    41    1
    45    24    42    1
    46    25    43    1
    47    26    44    1
@<TRIPOS>MOLECULE
../data/bude_mols_rdkit_confs2/molecule_4.pdb
 44 47 0 0 0
SMALL
GASTEIGER

@<TRIPOS>ATOM
      1  O1         0.9420    0.8820   -2.3020 O.2     1  UNL1       -0.2684
      2  C1         1.1290    0.7120   -1.0290 C.2     1  UNL1        0.2654
      3  N1        -0.0110    0.3650   -0.3010 N.am    1  UNL1       -0.2992
      4  C2        -1.2700    0.1910   -0.9460 C.3     1  UNL1        0.0740
      5  C3        -1.8520   -1.1430   -0.7950 C.ar    1  UNL1       -0.0228
      6  C4        -3.1900   -1.2470   -0.4860 C.ar    1  UNL1       -0.0565
      7  C5        -3.8180   -2.4740   -0.3250 C.ar    1  UNL1       -0.0614
      8  C6        -3.0880   -3.6360   -0.4770 C.ar    1  UNL1       -0.0617
      9  C7        -1.7470   -3.5220   -0.7870 C.ar    1  UNL1       -0.0614
     10  C8        -1.1360   -2.3110   -0.9440 C.ar    1  UNL1       -0.0565
     11  C9        -2.2190    1.2340   -0.4530 C.ar    1  UNL1       -0.0228
     12  C10       -2.2830    1.4810    0.9000 C.ar    1  UNL1       -0.0565
     13  C11       -3.1480    2.4350    1.3760 C.ar    1  UNL1       -0.0614
     14  C12       -3.9410    3.1320    0.4970 C.ar    1  UNL1       -0.0617
     15  C13       -3.8740    2.8820   -0.8560 C.ar    1  UNL1       -0.0614
     16  C14       -3.0270    1.9440   -1.3430 C.ar    1  UNL1       -0.0565
     17  C15        2.4780    0.9140   -0.5490 C.ar    1  UNL1        0.1533
     18  N2         3.2300    1.9610   -1.0190 N.ar    1  UNL1       -0.1656
     19  N3         4.4680    2.1850   -0.6320 N.ar    1  UNL1       -0.2420
     20  C16        5.1010    1.4020    0.2580 C.ar    1  UNL1        0.2725
     21  O2         6.3020    1.6590    0.6050 O.2     1  UNL1       -0.2658
     22  C17        4.4120    0.3290    0.7730 C.ar    1  UNL1        0.0501
     23  C18        5.0670   -0.4900    1.6610 C.ar    1  UNL1       -0.0487
     24  C19        4.3930   -1.5950    2.1620 C.ar    1  UNL1       -0.0610
     25  C20        3.1060   -1.8740    1.7870 C.ar    1  UNL1       -0.0611
     26  C21        2.4810   -1.0200    0.8880 C.ar    1  UNL1       -0.0516
     27  C22        3.0950    0.0960    0.3570 C.ar    1  UNL1        0.0195
     28 H           0.0560    0.2386    0.6730 H       1  UNL1        0.1500
     29 H          -1.0926    0.2993   -1.9956 H       1  UNL1        0.0599
     30 H          -3.7439   -0.3840   -0.3704 H       1  UNL1        0.0621
     31 H          -4.8228   -2.5176   -0.0935 H       1  UNL1        0.0618
     32 H          -3.5307   -4.5612   -0.3625 H       1  UNL1        0.0618
     33 H          -1.1877   -4.3814   -0.9040 H       1  UNL1        0.0618
     34 H          -0.1312   -2.2701   -1.1758 H       1  UNL1        0.0621
     35 H          -1.6840    0.9519    1.5528 H       1  UNL1        0.0621
     36 H          -3.2022    2.6274    2.3885 H       1  UNL1        0.0618
     37 H          -4.5923    3.8488    0.8533 H       1  UNL1        0.0618
     38 H          -4.4748    3.4144   -1.5046 H       1  UNL1        0.0618
     39 H          -2.9796    1.7569   -2.3568 H       1  UNL1        0.0621
     40 H           4.9492    2.9565   -1.0094 H       1  UNL1        0.1921
     41 H           6.0373   -0.2882    1.9486 H       1  UNL1        0.0625
     42 H           4.8714   -2.2188    2.8305 H       1  UNL1        0.0618
     43 H           2.6126   -2.6987    2.1632 H       1  UNL1        0.0618
     44 H           1.5114   -1.2298    0.6035 H       1  UNL1        0.0624
@<TRIPOS>BOND
     1     1     2    2
     2     2     3   am
     3     2    17    1
     4     3     4    1
     5     4     5    1
     6     4    11    1
     7     5     6   ar
     8     5    10   ar
     9     6     7   ar
    10     7     8   ar
    11     8     9   ar
    12     9    10   ar
    13    11    12   ar
    14    11    16   ar
    15    12    13   ar
    16    13    14   ar
    17    14    15   ar
    18    15    16   ar
    19    17    18   ar
    20    17    27   ar
    21    18    19   ar
    22    19    20   ar
    23    20    21    2
    24    20    22   ar
    25    22    23   ar
    26    22    27   ar
    27    23    24   ar
    28    24    25   ar
    29    25    26   ar
    30    26    27   ar
    31     3    28    1
    32     4    29    1
    33     6    30    1
    34     7    31    1
    35     8    32    1
    36     9    33    1
    37    10    34    1
    38    12    35    1
    39    13    36    1
    40    14    37    1
    41    15    38    1
    42    16    39    1
    43    19    40    1
    44    23    41    1
    45    24    42    1
    46    25    43    1
    47    26    44    1
