@<TRIPOS>MOLECULE
../data/bude_mols_rdkit_confs2/molecule_62.pdb
 40 43 0 0 0
SMALL
GASTEIGER

@<TRIPOS>ATOM
      1  O1        -3.0010    3.4710   -0.2930 O.2     1  UNL1       -0.2446
      2  C1        -3.7600    2.5500    0.0240 C.ar    1  UNL1        0.3487
      3  N1        -5.0920    2.6560    0.2360 N.ar    1  UNL1       -0.2263
      4  N2        -5.5910    1.4560    0.5580 N.ar    1  UNL1       -0.1561
      5  C2        -4.6020    0.5880    0.5550 C.ar    1  UNL1        0.1384
      6  N3        -3.4560    1.2690    0.2230 N.ar    1  UNL1       -0.2473
      7  C3        -2.1420    0.7260    0.1120 C.ar    1  UNL1        0.0560
      8  C4        -1.1940    1.6630    0.4290 C.ar    1  UNL1       -0.0339
      9  C5         0.1380    1.2450    0.3460 C.ar    1  UNL1       -0.0180
     10  C6         0.4700   -0.0420   -0.0320 C.ar    1  UNL1        0.1214
     11  O2         1.8020   -0.4550   -0.1130 O.3     1  UNL1       -0.4874
     12  C7         2.7980    0.4960    0.2070 C.3     1  UNL1        0.1147
     13  C8         4.1530   -0.0630    0.0830 C.ar    1  UNL1       -0.0077
     14  C9         4.7930   -0.6840    1.1480 C.ar    1  UNL1       -0.0552
     15  C10        6.0460   -1.2030    1.0390 C.ar    1  UNL1       -0.0587
     16  C11        6.7470   -1.1430   -0.1280 C.ar    1  UNL1       -0.0264
     17  C12        6.1440   -0.5310   -1.2190 C.ar    1  UNL1        0.1238
     18  F1         6.8100   -0.4510   -2.3970 F       1  UNL1       -0.2055
     19  C13        4.8620   -0.0020   -1.0990 C.ar    1  UNL1       -0.0201
     20  C14       -0.5540   -0.9270   -0.3330 C.ar    1  UNL1       -0.0148
     21  C15       -1.8860   -0.5780   -0.2720 C.ar    1  UNL1       -0.0199
     22  C16       -2.7160   -1.7220   -0.6290 C.3     1  UNL1       -0.0252
     23  C17       -4.1750   -1.6200   -0.4280 C.3     1  UNL1       -0.0421
     24  C18       -4.6280   -0.8910    0.8180 C.3     1  UNL1        0.0081
     25 H          -5.6141    3.4876    0.1645 H       1  UNL1        0.1937
     26 H          -1.4482    2.6221    0.7127 H       1  UNL1        0.0639
     27 H           0.8908    1.9136    0.5724 H       1  UNL1        0.0655
     28 H           2.6508    0.8249    1.2145 H       1  UNL1        0.0748
     29 H           2.7117    1.3100   -0.4821 H       1  UNL1        0.0748
     30 H           4.3014   -0.7541    2.0527 H       1  UNL1        0.0621
     31 H           6.4766   -1.6538    1.8614 H       1  UNL1        0.0619
     32 H           7.6969   -1.5402   -0.1989 H       1  UNL1        0.0646
     33 H           4.4286    0.4497   -1.9194 H       1  UNL1        0.0650
     34 H          -0.3082   -1.8888   -0.6150 H       1  UNL1        0.0657
     35 H          -2.3741   -2.5541   -0.0497 H       1  UNL1        0.0314
     36 H          -2.6017   -1.8096   -1.6893 H       1  UNL1        0.0314
     37 H          -4.5691   -2.6139   -0.3863 H       1  UNL1        0.0272
     38 H          -4.5372   -1.0368   -1.2487 H       1  UNL1        0.0272
     39 H          -5.6232   -1.1935    1.0689 H       1  UNL1        0.0344
     40 H          -3.9744   -1.1253    1.6321 H       1  UNL1        0.0344
@<TRIPOS>BOND
     1     1     2    2
     2     2     3   ar
     3     2     6   ar
     4     3     4   ar
     5     4     5   ar
     6     5     6   ar
     7     5    24    1
     8     6     7    1
     9     7     8   ar
    10     7    21   ar
    11     8     9   ar
    12     9    10   ar
    13    10    11    1
    14    10    20   ar
    15    11    12    1
    16    12    13    1
    17    13    14   ar
    18    13    19   ar
    19    14    15   ar
    20    15    16   ar
    21    16    17   ar
    22    17    18    1
    23    17    19   ar
    24    20    21   ar
    25    21    22    1
    26    22    23    1
    27    23    24    1
    28     3    25    1
    29     8    26    1
    30     9    27    1
    31    12    28    1
    32    12    29    1
    33    14    30    1
    34    15    31    1
    35    16    32    1
    36    19    33    1
    37    20    34    1
    38    22    35    1
    39    22    36    1
    40    23    37    1
    41    23    38    1
    42    24    39    1
    43    24    40    1
@<TRIPOS>MOLECULE
../data/bude_mols_rdkit_confs2/molecule_62.pdb
 40 43 0 0 0
SMALL
GASTEIGER

@<TRIPOS>ATOM
      1  O1        -3.0440   -3.5040   -0.1080 O.2     1  UNL1       -0.2446
      2  C1        -3.7760   -2.5190    0.0300 C.ar    1  UNL1        0.3487
      3  N1        -5.1120   -2.5730    0.1520 N.ar    1  UNL1       -0.2263
      4  N2        -5.5960   -1.3350    0.2790 N.ar    1  UNL1       -0.1561
      5  C2        -4.5690   -0.4660    0.2400 C.ar    1  UNL1        0.1384
      6  N3        -3.4580   -1.2400    0.0860 N.ar    1  UNL1       -0.2473
      7  C3        -2.1450   -0.7090   -0.0020 C.ar    1  UNL1        0.0560
      8  C4        -1.2330   -1.6110    0.4720 C.ar    1  UNL1       -0.0339
      9  C5         0.1160   -1.2440    0.4360 C.ar    1  UNL1       -0.0180
     10  C6         0.4840   -0.0200   -0.0590 C.ar    1  UNL1        0.1214
     11  O2         1.8120    0.3400   -0.0940 O.3     1  UNL1       -0.4874
     12  C7         2.7870   -0.5440    0.3760 C.3     1  UNL1        0.1147
     13  C8         4.1500    0.0220    0.2550 C.ar    1  UNL1       -0.0077
     14  C9         4.2860    1.2860   -0.2780 C.ar    1  UNL1       -0.0552
     15  C10        5.5430    1.8440   -0.4050 C.ar    1  UNL1       -0.0587
     16  C11        6.6340    1.1210    0.0050 C.ar    1  UNL1       -0.0264
     17  C12        6.4940   -0.1450    0.5390 C.ar    1  UNL1        0.1238
     18  F1         7.5560   -0.8630    0.9450 F       1  UNL1       -0.2055
     19  C13        5.2360   -0.7050    0.6670 C.ar    1  UNL1       -0.0201
     20  C14       -0.4570    0.8930   -0.5380 C.ar    1  UNL1       -0.0148
     21  C15       -1.7580    0.5370   -0.5030 C.ar    1  UNL1       -0.0199
     22  C16       -2.7390    1.5680   -1.0000 C.3     1  UNL1       -0.0252
     23  C17       -3.6210    1.8550    0.2020 C.3     1  UNL1       -0.0421
     24  C18       -4.8030    0.9720    0.3430 C.3     1  UNL1        0.0081
     25 H          -5.6508   -3.3970    0.1484 H       1  UNL1        0.1937
     26 H          -1.5290   -2.5277    0.8422 H       1  UNL1        0.0639
     27 H           0.8363   -1.8965    0.7831 H       1  UNL1        0.0655
     28 H           2.7365   -1.4489   -0.1927 H       1  UNL1        0.0748
     29 H           2.5954   -0.7285    1.4124 H       1  UNL1        0.0748
     30 H           3.4521    1.8131   -0.5809 H       1  UNL1        0.0621
     31 H           5.6594    2.7895   -0.8019 H       1  UNL1        0.0619
     32 H           7.5768    1.5305   -0.0872 H       1  UNL1        0.0646
     33 H           5.1177   -1.6501    1.0643 H       1  UNL1        0.0650
     34 H          -0.1666    1.8118   -0.9075 H       1  UNL1        0.0657
     35 H          -3.3184    1.1799   -1.8115 H       1  UNL1        0.0314
     36 H          -2.2555    2.4470   -1.3721 H       1  UNL1        0.0314
     37 H          -3.9690    2.8638    0.1238 H       1  UNL1        0.0272
     38 H          -3.0136    1.6778    1.0649 H       1  UNL1        0.0272
     39 H          -5.2353    1.1613    1.3033 H       1  UNL1        0.0344
     40 H          -5.4321    1.2127   -0.4884 H       1  UNL1        0.0344
@<TRIPOS>BOND
     1     1     2    2
     2     2     3   ar
     3     2     6   ar
     4     3     4   ar
     5     4     5   ar
     6     5     6   ar
     7     5    24    1
     8     6     7    1
     9     7     8   ar
    10     7    21   ar
    11     8     9   ar
    12     9    10   ar
    13    10    11    1
    14    10    20   ar
    15    11    12    1
    16    12    13    1
    17    13    14   ar
    18    13    19   ar
    19    14    15   ar
    20    15    16   ar
    21    16    17   ar
    22    17    18    1
    23    17    19   ar
    24    20    21   ar
    25    21    22    1
    26    22    23    1
    27    23    24    1
    28     3    25    1
    29     8    26    1
    30     9    27    1
    31    12    28    1
    32    12    29    1
    33    14    30    1
    34    15    31    1
    35    16    32    1
    36    19    33    1
    37    20    34    1
    38    22    35    1
    39    22    36    1
    40    23    37    1
    41    23    38    1
    42    24    39    1
    43    24    40    1
@<TRIPOS>MOLECULE
../data/bude_mols_rdkit_confs2/molecule_62.pdb
 40 43 0 0 0
SMALL
GASTEIGER

@<TRIPOS>ATOM
      1  O1        -3.3770   -2.7610   -1.7520 O.2     1  UNL1       -0.2446
      2  C1        -4.0080   -1.8350   -1.2160 C.ar    1  UNL1        0.3487
      3  N1        -5.3560   -1.7360   -1.2360 N.ar    1  UNL1       -0.2263
      4  N2        -5.7290   -0.6500   -0.5810 N.ar    1  UNL1       -0.1561
      5  C2        -4.6410   -0.0120   -0.1170 C.ar    1  UNL1        0.1384
      6  N3        -3.5900   -0.7710   -0.5280 N.ar    1  UNL1       -0.2473
      7  C3        -2.2260   -0.4990   -0.2750 C.ar    1  UNL1        0.0560
      8  C4        -1.4100   -1.0110   -1.2340 C.ar    1  UNL1       -0.0339
      9  C5        -0.0500   -0.8240   -1.0760 C.ar    1  UNL1       -0.0180
     10  C6         0.4710   -0.1410    0.0120 C.ar    1  UNL1        0.1214
     11  O2         1.8410    0.0210    0.1280 O.3     1  UNL1       -0.4874
     12  C7         2.7570   -0.4790   -0.8180 C.3     1  UNL1        0.1147
     13  C8         4.1470   -0.1420   -0.4120 C.ar    1  UNL1       -0.0077
     14  C9         4.9020   -0.9770    0.3830 C.ar    1  UNL1       -0.0552
     15  C10        6.2050   -0.6510    0.7570 C.ar    1  UNL1       -0.0587
     16  C11        6.7800    0.5290    0.3370 C.ar    1  UNL1       -0.0264
     17  C12        6.0210    1.3610   -0.4590 C.ar    1  UNL1        0.1238
     18  F1         6.5900    2.5360   -0.8780 F       1  UNL1       -0.2055
     19  C13        4.7310    1.0390   -0.8290 C.ar    1  UNL1       -0.0201
     20  C14       -0.3770    0.3730    0.9740 C.ar    1  UNL1       -0.0148
     21  C15       -1.7190    0.1980    0.8350 C.ar    1  UNL1       -0.0199
     22  C16       -2.5640    0.8270    1.9120 C.3     1  UNL1       -0.0252
     23  C17       -3.4640    1.7910    1.1700 C.3     1  UNL1       -0.0421
     24  C18       -4.7400    1.2320    0.6740 C.3     1  UNL1        0.0081
     25 H          -5.9660   -2.3744   -1.6713 H       1  UNL1        0.1937
     26 H          -1.7909   -1.5190   -2.0475 H       1  UNL1        0.0639
     27 H           0.5950   -1.2029   -1.7869 H       1  UNL1        0.0655
     28 H           2.5520   -0.0432   -1.7735 H       1  UNL1        0.0748
     29 H           2.6569   -1.5429   -0.8736 H       1  UNL1        0.0748
     30 H           4.4925   -1.8661    0.7098 H       1  UNL1        0.0621
     31 H           6.7434   -1.2987    1.3533 H       1  UNL1        0.0619
     32 H           7.7434    0.7808    0.6083 H       1  UNL1        0.0646
     33 H           4.1952    1.6890   -1.4252 H       1  UNL1        0.0650
     34 H           0.0024    0.8828    1.7871 H       1  UNL1        0.0657
     35 H          -1.9514    1.3480    2.6179 H       1  UNL1        0.0314
     36 H          -3.1168    0.1019    2.4719 H       1  UNL1        0.0314
     37 H          -2.9204    2.1647    0.3276 H       1  UNL1        0.0272
     38 H          -3.7345    2.5416    1.8829 H       1  UNL1        0.0272
     39 H          -5.3607    1.0315    1.5222 H       1  UNL1        0.0344
     40 H          -5.1350    1.9674    0.0047 H       1  UNL1        0.0344
@<TRIPOS>BOND
     1     1     2    2
     2     2     3   ar
     3     2     6   ar
     4     3     4   ar
     5     4     5   ar
     6     5     6   ar
     7     5    24    1
     8     6     7    1
     9     7     8   ar
    10     7    21   ar
    11     8     9   ar
    12     9    10   ar
    13    10    11    1
    14    10    20   ar
    15    11    12    1
    16    12    13    1
    17    13    14   ar
    18    13    19   ar
    19    14    15   ar
    20    15    16   ar
    21    16    17   ar
    22    17    18    1
    23    17    19   ar
    24    20    21   ar
    25    21    22    1
    26    22    23    1
    27    23    24    1
    28     3    25    1
    29     8    26    1
    30     9    27    1
    31    12    28    1
    32    12    29    1
    33    14    30    1
    34    15    31    1
    35    16    32    1
    36    19    33    1
    37    20    34    1
    38    22    35    1
    39    22    36    1
    40    23    37    1
    41    23    38    1
    42    24    39    1
    43    24    40    1
@<TRIPOS>MOLECULE
../data/bude_mols_rdkit_confs2/molecule_62.pdb
 40 43 0 0 0
SMALL
GASTEIGER

@<TRIPOS>ATOM
      1  O1        -3.0920    3.1330    1.5070 O.2     1  UNL1       -0.2446
      2  C1        -3.8160    2.2660    1.0050 C.ar    1  UNL1        0.3487
      3  N1        -5.1510    2.3610    0.8980 N.ar    1  UNL1       -0.2263
      4  N2        -5.6290    1.2610    0.3160 N.ar    1  UNL1       -0.1561
      5  C2        -4.6010    0.4390    0.0390 C.ar    1  UNL1        0.1384
      6  N3        -3.4970    1.0900    0.4760 N.ar    1  UNL1       -0.2473
      7  C3        -2.1790    0.5790    0.3800 C.ar    1  UNL1        0.0560
      8  C4        -1.2720    1.6000    0.2890 C.ar    1  UNL1       -0.0339
      9  C5         0.0700    1.2200    0.2110 C.ar    1  UNL1       -0.0180
     10  C6         0.4610   -0.1010    0.2230 C.ar    1  UNL1        0.1214
     11  O2         1.8230   -0.4030    0.1420 O.3     1  UNL1       -0.4874
     12  C7         2.7810    0.6110    0.0490 C.3     1  UNL1        0.1147
     13  C8         4.1600    0.1160   -0.0270 C.ar    1  UNL1       -0.0077
     14  C9         4.8820   -0.0800    1.1220 C.ar    1  UNL1       -0.0552
     15  C10        6.1970   -0.5500    1.0870 C.ar    1  UNL1       -0.0587
     16  C11        6.7420   -0.8090   -0.1500 C.ar    1  UNL1       -0.0264
     17  C12        6.0460   -0.6220   -1.3010 C.ar    1  UNL1        0.1238
     18  F1         6.5990   -0.8820   -2.5160 F       1  UNL1       -0.2055
     19  C13        4.7350   -0.1520   -1.2390 C.ar    1  UNL1       -0.0201
     20  C14       -0.4910   -1.1080    0.3150 C.ar    1  UNL1       -0.0148
     21  C15       -1.7970   -0.7590    0.3920 C.ar    1  UNL1       -0.0199
     22  C16       -2.7690   -1.9130    0.4540 C.3     1  UNL1       -0.0252
     23  C17       -3.6530   -1.7440   -0.7680 C.3     1  UNL1       -0.0421
     24  C18       -4.8250   -0.8580   -0.5910 C.3     1  UNL1        0.0081
     25 H          -5.6929    3.1246    1.2022 H       1  UNL1        0.1937
     26 H          -1.5619    2.5904    0.2786 H       1  UNL1        0.0639
     27 H           0.7928    1.9534    0.1421 H       1  UNL1        0.0655
     28 H           2.6943    1.2375    0.9121 H       1  UNL1        0.0748
     29 H           2.5885    1.1397   -0.8611 H       1  UNL1        0.0748
     30 H           4.4438    0.1244    2.0337 H       1  UNL1        0.0621
     31 H           6.7379   -0.6971    1.9535 H       1  UNL1        0.0619
     32 H           7.7120   -1.1570   -0.2047 H       1  UNL1        0.0646
     33 H           4.1979   -0.0061   -2.1081 H       1  UNL1        0.0650
     34 H          -0.2091   -2.1007    0.3245 H       1  UNL1        0.0657
     35 H          -3.3521   -1.8665    1.3500 H       1  UNL1        0.0314
     36 H          -2.2706   -2.8598    0.4632 H       1  UNL1        0.0314
     37 H          -4.0114   -2.7115   -1.0515 H       1  UNL1        0.0272
     38 H          -3.0408   -1.2753   -1.5099 H       1  UNL1        0.0272
     39 H          -5.2383   -0.6759   -1.5610 H       1  UNL1        0.0344
     40 H          -5.4636   -1.3837    0.0878 H       1  UNL1        0.0344
@<TRIPOS>BOND
     1     1     2    2
     2     2     3   ar
     3     2     6   ar
     4     3     4   ar
     5     4     5   ar
     6     5     6   ar
     7     5    24    1
     8     6     7    1
     9     7     8   ar
    10     7    21   ar
    11     8     9   ar
    12     9    10   ar
    13    10    11    1
    14    10    20   ar
    15    11    12    1
    16    12    13    1
    17    13    14   ar
    18    13    19   ar
    19    14    15   ar
    20    15    16   ar
    21    16    17   ar
    22    17    18    1
    23    17    19   ar
    24    20    21   ar
    25    21    22    1
    26    22    23    1
    27    23    24    1
    28     3    25    1
    29     8    26    1
    30     9    27    1
    31    12    28    1
    32    12    29    1
    33    14    30    1
    34    15    31    1
    35    16    32    1
    36    19    33    1
    37    20    34    1
    38    22    35    1
    39    22    36    1
    40    23    37    1
    41    23    38    1
    42    24    39    1
    43    24    40    1
@<TRIPOS>MOLECULE
../data/bude_mols_rdkit_confs2/molecule_62.pdb
 40 43 0 0 0
SMALL
GASTEIGER

@<TRIPOS>ATOM
      1  O1         3.5070    2.8210    1.0770 O.2     1  UNL1       -0.2446
      2  C1         4.1120    1.8600    0.5920 C.ar    1  UNL1        0.3487
      3  N1         5.4410    1.7670    0.4380 N.ar    1  UNL1       -0.2263
      4  N2         5.7630    0.6070   -0.1080 N.ar    1  UNL1       -0.1561
      5  C2         4.6160   -0.0890   -0.3220 C.ar    1  UNL1        0.1384
      6  N3         3.6130    0.7200    0.1230 N.ar    1  UNL1       -0.2473
      7  C3         2.2340    0.3790    0.0840 C.ar    1  UNL1        0.0560
      8  C4         1.4660    1.5040   -0.0120 C.ar    1  UNL1       -0.0339
      9  C5         0.0870    1.3080   -0.0380 C.ar    1  UNL1       -0.0180
     10  C6        -0.4930    0.0670    0.0250 C.ar    1  UNL1        0.1214
     11  O2        -1.8650   -0.1480    0.0010 O.3     1  UNL1       -0.4874
     12  C7        -2.7070    0.9990   -0.0970 C.3     1  UNL1        0.1147
     13  C8        -4.1330    0.5520   -0.1080 C.ar    1  UNL1       -0.0077
     14  C9        -5.1130    1.5300   -0.1990 C.ar    1  UNL1       -0.0552
     15  C10       -6.4240    1.1280   -0.2100 C.ar    1  UNL1       -0.0587
     16  C11       -6.7410   -0.2190   -0.1310 C.ar    1  UNL1       -0.0264
     17  C12       -5.7610   -1.1870   -0.0410 C.ar    1  UNL1        0.1238
     18  F1        -6.0480   -2.5080    0.0360 F       1  UNL1       -0.2055
     19  C13       -4.4480   -0.7810   -0.0310 C.ar    1  UNL1       -0.0201
     20  C14        0.3220   -1.0640    0.1210 C.ar    1  UNL1       -0.0148
     21  C15        1.6620   -0.8990    0.1490 C.ar    1  UNL1       -0.0199
     22  C16        2.4840   -2.1590    0.2130 C.3     1  UNL1       -0.0252
     23  C17        3.3350   -2.1260   -1.0390 C.3     1  UNL1       -0.0421
     24  C18        4.6390   -1.4330   -0.9060 C.3     1  UNL1        0.0081
     25 H           6.0862    2.4647    0.6954 H       1  UNL1        0.1937
     26 H           1.8836    2.4464   -0.0625 H       1  UNL1        0.0639
     27 H          -0.5264    2.1350   -0.1079 H       1  UNL1        0.0655
     28 H          -2.4894    1.5284   -1.0011 H       1  UNL1        0.0748
     29 H          -2.5362    1.6469    0.7372 H       1  UNL1        0.0748
     30 H          -4.8629    2.5296   -0.2567 H       1  UNL1        0.0621
     31 H          -7.1769    1.8306   -0.2773 H       1  UNL1        0.0619
     32 H          -7.7326   -0.5048   -0.1397 H       1  UNL1        0.0646
     33 H          -3.6945   -1.4831    0.0348 H       1  UNL1        0.0650
     34 H          -0.0924   -2.0079    0.1696 H       1  UNL1        0.0657
     35 H           1.8518   -3.0223    0.2170 H       1  UNL1        0.0314
     36 H           3.0751   -2.2122    1.1033 H       1  UNL1        0.0314
     37 H           2.7753   -1.6313   -1.8051 H       1  UNL1        0.0272
     38 H           3.5660   -3.1462   -1.2643 H       1  UNL1        0.0272
     39 H           5.2683   -2.0423   -0.2915 H       1  UNL1        0.0344
     40 H           4.9876   -1.2970   -1.9085 H       1  UNL1        0.0344
@<TRIPOS>BOND
     1     1     2    2
     2     2     3   ar
     3     2     6   ar
     4     3     4   ar
     5     4     5   ar
     6     5     6   ar
     7     5    24    1
     8     6     7    1
     9     7     8   ar
    10     7    21   ar
    11     8     9   ar
    12     9    10   ar
    13    10    11    1
    14    10    20   ar
    15    11    12    1
    16    12    13    1
    17    13    14   ar
    18    13    19   ar
    19    14    15   ar
    20    15    16   ar
    21    16    17   ar
    22    17    18    1
    23    17    19   ar
    24    20    21   ar
    25    21    22    1
    26    22    23    1
    27    23    24    1
    28     3    25    1
    29     8    26    1
    30     9    27    1
    31    12    28    1
    32    12    29    1
    33    14    30    1
    34    15    31    1
    35    16    32    1
    36    19    33    1
    37    20    34    1
    38    22    35    1
    39    22    36    1
    40    23    37    1
    41    23    38    1
    42    24    39    1
    43    24    40    1
@<TRIPOS>MOLECULE
../data/bude_mols_rdkit_confs2/molecule_62.pdb
 40 43 0 0 0
SMALL
GASTEIGER

@<TRIPOS>ATOM
      1  O1         1.3050    1.9380    2.5340 O.2     1  UNL1       -0.2446
      2  C1         2.2900    1.2670    2.2140 C.ar    1  UNL1        0.3487
      3  N1         3.4500    1.3260    2.8890 N.ar    1  UNL1       -0.2263
      4  N2         4.3260    0.5120    2.3450 N.ar    1  UNL1       -0.1561
      5  C2         3.7350   -0.1120    1.2720 C.ar    1  UNL1        0.1384
      6  N3         2.4970    0.3790    1.2300 N.ar    1  UNL1       -0.2473
      7  C3         1.4840    0.0290    0.2880 C.ar    1  UNL1        0.0560
      8  C4         0.5440    0.9980    0.1550 C.ar    1  UNL1       -0.0339
      9  C5        -0.5270    0.7420   -0.7130 C.ar    1  UNL1       -0.0180
     10  C6        -0.6480   -0.4160   -1.4060 C.ar    1  UNL1        0.1214
     11  O2        -1.7180   -0.6820   -2.2750 O.3     1  UNL1       -0.4874
     12  C7        -2.7590    0.2230   -2.4960 C.3     1  UNL1        0.1147
     13  C8        -3.4500    0.4650   -1.2030 C.ar    1  UNL1       -0.0077
     14  C9        -3.2970   -0.3530   -0.0920 C.ar    1  UNL1       -0.0552
     15  C10       -3.9630   -0.0830    1.0910 C.ar    1  UNL1       -0.0587
     16  C11       -4.7980    1.0100    1.1930 C.ar    1  UNL1       -0.0264
     17  C12       -4.9710    1.8430    0.1050 C.ar    1  UNL1        0.1238
     18  F1        -5.7970    2.9300    0.1980 F       1  UNL1       -0.2055
     19  C13       -4.2980    1.5550   -1.0600 C.ar    1  UNL1       -0.0201
     20  C14        0.3280   -1.3950   -1.2570 C.ar    1  UNL1       -0.0148
     21  C15        1.3810   -1.1820   -0.4250 C.ar    1  UNL1       -0.0199
     22  C16        2.4170   -2.2530   -0.3880 C.3     1  UNL1       -0.0252
     23  C17        3.7700   -1.5960   -0.6950 C.3     1  UNL1       -0.0421
     24  C18        4.4810   -1.1040    0.4960 C.3     1  UNL1        0.0081
     25 H           3.6186    1.8948    3.6747 H       1  UNL1        0.1937
     26 H           0.6144    1.8883    0.6722 H       1  UNL1        0.0639
     27 H          -1.2534    1.4658   -0.8289 H       1  UNL1        0.0655
     28 H          -3.4493   -0.1856   -3.2041 H       1  UNL1        0.0748
     29 H          -2.3721    1.1418   -2.8846 H       1  UNL1        0.0748
     30 H          -2.6767   -1.1758   -0.1490 H       1  UNL1        0.0621
     31 H          -3.8336   -0.7052    1.9041 H       1  UNL1        0.0619
     32 H          -5.2913    1.2045    2.0783 H       1  UNL1        0.0646
     33 H          -4.4304    2.1815   -1.8693 H       1  UNL1        0.0650
     34 H           0.2527   -2.2827   -1.7779 H       1  UNL1        0.0657
     35 H           2.1978   -2.9990   -1.1231 H       1  UNL1        0.0314
     36 H           2.4365   -2.7259    0.5716 H       1  UNL1        0.0314
     37 H           3.6007   -0.7682   -1.3516 H       1  UNL1        0.0272
     38 H           4.3880   -2.3510   -1.1343 H       1  UNL1        0.0272
     39 H           4.6898   -1.9393    1.1313 H       1  UNL1        0.0344
     40 H           5.3677   -0.6179    0.1463 H       1  UNL1        0.0344
@<TRIPOS>BOND
     1     1     2    2
     2     2     3   ar
     3     2     6   ar
     4     3     4   ar
     5     4     5   ar
     6     5     6   ar
     7     5    24    1
     8     6     7    1
     9     7     8   ar
    10     7    21   ar
    11     8     9   ar
    12     9    10   ar
    13    10    11    1
    14    10    20   ar
    15    11    12    1
    16    12    13    1
    17    13    14   ar
    18    13    19   ar
    19    14    15   ar
    20    15    16   ar
    21    16    17   ar
    22    17    18    1
    23    17    19   ar
    24    20    21   ar
    25    21    22    1
    26    22    23    1
    27    23    24    1
    28     3    25    1
    29     8    26    1
    30     9    27    1
    31    12    28    1
    32    12    29    1
    33    14    30    1
    34    15    31    1
    35    16    32    1
    36    19    33    1
    37    20    34    1
    38    22    35    1
    39    22    36    1
    40    23    37    1
    41    23    38    1
    42    24    39    1
    43    24    40    1
@<TRIPOS>MOLECULE
../data/bude_mols_rdkit_confs2/molecule_62.pdb
 40 43 0 0 0
SMALL
GASTEIGER

@<TRIPOS>ATOM
      1  O1        -3.5250   -2.6640   -1.8460 O.2     1  UNL1       -0.2446
      2  C1        -4.1360   -1.7510   -1.2650 C.ar    1  UNL1        0.3487
      3  N1        -5.4700   -1.6220   -1.1790 N.ar    1  UNL1       -0.2263
      4  N2        -5.7800   -0.5350   -0.4950 N.ar    1  UNL1       -0.1561
      5  C2        -4.6240    0.0870   -0.1090 C.ar    1  UNL1        0.1384
      6  N3        -3.6430   -0.6970   -0.6040 N.ar    1  UNL1       -0.2473
      7  C3        -2.2590   -0.4250   -0.4440 C.ar    1  UNL1        0.0560
      8  C4        -1.5130   -1.5610   -0.4600 C.ar    1  UNL1       -0.0339
      9  C5        -0.1250   -1.4130   -0.3440 C.ar    1  UNL1       -0.0180
     10  C6         0.5060   -0.2120   -0.2160 C.ar    1  UNL1        0.1214
     11  O2         1.8780   -0.0470   -0.1010 O.3     1  UNL1       -0.4874
     12  C7         2.7760   -1.1270   -0.1050 C.3     1  UNL1        0.1147
     13  C8         4.1490   -0.5960    0.0350 C.ar    1  UNL1       -0.0077
     14  C9         5.2630   -1.4240    0.0650 C.ar    1  UNL1       -0.0552
     15  C10        6.5050   -0.8590    0.1960 C.ar    1  UNL1       -0.0587
     16  C11        6.7170    0.5040    0.3030 C.ar    1  UNL1       -0.0264
     17  C12        5.6050    1.3390    0.2730 C.ar    1  UNL1        0.1238
     18  F1         5.7300    2.6980    0.3730 F       1  UNL1       -0.2055
     19  C13        4.3640    0.7630    0.1410 C.ar    1  UNL1       -0.0201
     20  C14       -0.2880    0.9380   -0.2010 C.ar    1  UNL1       -0.0148
     21  C15       -1.6500    0.8310   -0.3120 C.ar    1  UNL1       -0.0199
     22  C16       -2.3990    2.1240   -0.2340 C.3     1  UNL1       -0.0252
     23  C17       -3.3270    1.9510    0.9630 C.3     1  UNL1       -0.0421
     24  C18       -4.6450    1.3510    0.6620 C.3     1  UNL1        0.0081
     25 H          -6.1227   -2.2472   -1.5693 H       1  UNL1        0.1937
     26 H          -1.9498   -2.4913   -0.5535 H       1  UNL1        0.0639
     27 H           0.4556   -2.2661   -0.3562 H       1  UNL1        0.0655
     28 H           2.6893   -1.6651   -1.0258 H       1  UNL1        0.0748
     29 H           2.5551   -1.7905    0.7049 H       1  UNL1        0.0748
     30 H           5.1578   -2.4479   -0.0101 H       1  UNL1        0.0621
     31 H           7.3261   -1.4839    0.2159 H       1  UNL1        0.0619
     32 H           7.6695    0.8887    0.4019 H       1  UNL1        0.0646
     33 H           3.5415    1.3859    0.1198 H       1  UNL1        0.0650
     34 H           0.1509    1.8672   -0.1064 H       1  UNL1        0.0657
     35 H          -2.9617    2.2905   -1.1287 H       1  UNL1        0.0314
     36 H          -1.7487    2.9671   -0.1282 H       1  UNL1        0.0314
     37 H          -3.4942    2.9163    1.3934 H       1  UNL1        0.0272
     38 H          -2.8346    1.2662    1.6214 H       1  UNL1        0.0272
     39 H          -5.1368    1.1583    1.5926 H       1  UNL1        0.0344
     40 H          -5.1481    2.0600    0.0383 H       1  UNL1        0.0344
@<TRIPOS>BOND
     1     1     2    2
     2     2     3   ar
     3     2     6   ar
     4     3     4   ar
     5     4     5   ar
     6     5     6   ar
     7     5    24    1
     8     6     7    1
     9     7     8   ar
    10     7    21   ar
    11     8     9   ar
    12     9    10   ar
    13    10    11    1
    14    10    20   ar
    15    11    12    1
    16    12    13    1
    17    13    14   ar
    18    13    19   ar
    19    14    15   ar
    20    15    16   ar
    21    16    17   ar
    22    17    18    1
    23    17    19   ar
    24    20    21   ar
    25    21    22    1
    26    22    23    1
    27    23    24    1
    28     3    25    1
    29     8    26    1
    30     9    27    1
    31    12    28    1
    32    12    29    1
    33    14    30    1
    34    15    31    1
    35    16    32    1
    36    19    33    1
    37    20    34    1
    38    22    35    1
    39    22    36    1
    40    23    37    1
    41    23    38    1
    42    24    39    1
    43    24    40    1
@<TRIPOS>MOLECULE
../data/bude_mols_rdkit_confs2/molecule_62.pdb
 40 43 0 0 0
SMALL
GASTEIGER

@<TRIPOS>ATOM
      1  O1        -3.4260    3.2070    0.4250 O.2     1  UNL1       -0.2446
      2  C1        -4.0460    2.1590    0.1520 C.ar    1  UNL1        0.3487
      3  N1        -5.3990    2.0840    0.0100 N.ar    1  UNL1       -0.2263
      4  N2        -5.7480    0.8170   -0.2770 N.ar    1  UNL1       -0.1561
      5  C2        -4.6300    0.0860   -0.3190 C.ar    1  UNL1        0.1384
      6  N3        -3.5930    0.9200   -0.0560 N.ar    1  UNL1       -0.2473
      7  C3        -2.2370    0.5460   -0.0100 C.ar    1  UNL1        0.0560
      8  C4        -1.4180    1.5860   -0.3670 C.ar    1  UNL1       -0.0339
      9  C5        -0.0450    1.3490   -0.3420 C.ar    1  UNL1       -0.0180
     10  C6         0.4660    0.1300    0.0210 C.ar    1  UNL1        0.1214
     11  O2         1.8250   -0.0800    0.0370 O.3     1  UNL1       -0.4874
     12  C7         2.7750    0.9080   -0.3060 C.3     1  UNL1        0.1147
     13  C8         4.1590    0.3540   -0.1830 C.ar    1  UNL1       -0.0077
     14  C9         5.2600    1.1350   -0.4670 C.ar    1  UNL1       -0.0552
     15  C10        6.5480    0.6780   -0.3710 C.ar    1  UNL1       -0.0587
     16  C11        6.7710   -0.6100    0.0250 C.ar    1  UNL1       -0.0264
     17  C12        5.6900   -1.4260    0.3190 C.ar    1  UNL1        0.1238
     18  F1         5.9720   -2.6960    0.7060 F       1  UNL1       -0.2055
     19  C13        4.3870   -0.9530    0.2180 C.ar    1  UNL1       -0.0201
     20  C14       -0.3930   -0.8840    0.3690 C.ar    1  UNL1       -0.0148
     21  C15       -1.7690   -0.7070    0.3640 C.ar    1  UNL1       -0.0199
     22  C16       -2.4320   -1.9510    0.7570 C.3     1  UNL1       -0.0252
     23  C17       -3.9050   -1.9990    0.6690 C.3     1  UNL1       -0.0421
     24  C18       -4.5250   -1.4000   -0.5720 C.3     1  UNL1        0.0081
     25 H          -6.0237    2.8392    0.1029 H       1  UNL1        0.1937
     26 H          -1.8014    2.5038   -0.6421 H       1  UNL1        0.0639
     27 H           0.6023    2.1092   -0.6029 H       1  UNL1        0.0655
     28 H           2.6689    1.7449    0.3522 H       1  UNL1        0.0748
     29 H           2.6098    1.2172   -1.3169 H       1  UNL1        0.0748
     30 H           5.1061    2.1106   -0.7662 H       1  UNL1        0.0621
     31 H           7.3405    1.2998   -0.5953 H       1  UNL1        0.0619
     32 H           7.7342   -0.9718    0.1045 H       1  UNL1        0.0646
     33 H           3.5923   -1.5726    0.4407 H       1  UNL1        0.0650
     34 H          -0.0049   -1.8007    0.6411 H       1  UNL1        0.0657
     35 H          -2.1657   -2.1478    1.7745 H       1  UNL1        0.0314
     36 H          -2.0940   -2.6750    0.0454 H       1  UNL1        0.0314
     37 H          -4.2987   -1.4749    1.5147 H       1  UNL1        0.0272
     38 H          -4.1535   -3.0392    0.6365 H       1  UNL1        0.0272
     39 H          -3.9049   -1.5879   -1.4235 H       1  UNL1        0.0344
     40 H          -5.4844   -1.8289   -0.7731 H       1  UNL1        0.0344
@<TRIPOS>BOND
     1     1     2    2
     2     2     3   ar
     3     2     6   ar
     4     3     4   ar
     5     4     5   ar
     6     5     6   ar
     7     5    24    1
     8     6     7    1
     9     7     8   ar
    10     7    21   ar
    11     8     9   ar
    12     9    10   ar
    13    10    11    1
    14    10    20   ar
    15    11    12    1
    16    12    13    1
    17    13    14   ar
    18    13    19   ar
    19    14    15   ar
    20    15    16   ar
    21    16    17   ar
    22    17    18    1
    23    17    19   ar
    24    20    21   ar
    25    21    22    1
    26    22    23    1
    27    23    24    1
    28     3    25    1
    29     8    26    1
    30     9    27    1
    31    12    28    1
    32    12    29    1
    33    14    30    1
    34    15    31    1
    35    16    32    1
    36    19    33    1
    37    20    34    1
    38    22    35    1
    39    22    36    1
    40    23    37    1
    41    23    38    1
    42    24    39    1
    43    24    40    1
@<TRIPOS>MOLECULE
../data/bude_mols_rdkit_confs2/molecule_62.pdb
 40 43 0 0 0
SMALL
GASTEIGER

@<TRIPOS>ATOM
      1  O1        -3.2810    3.1250   -0.8850 O.2     1  UNL1       -0.2446
      2  C1        -3.9560    2.0980   -0.8160 C.ar    1  UNL1        0.3487
      3  N1        -5.2820    2.0370   -1.0130 N.ar    1  UNL1       -0.2263
      4  N2        -5.6960    0.7960   -0.8610 N.ar    1  UNL1       -0.1561
      5  C2        -4.6360    0.0060   -0.5560 C.ar    1  UNL1        0.1384
      6  N3        -3.5740    0.8580   -0.5400 N.ar    1  UNL1       -0.2473
      7  C3        -2.2100    0.5220   -0.2710 C.ar    1  UNL1        0.0560
      8  C4        -1.3160    1.3560   -0.8810 C.ar    1  UNL1       -0.0339
      9  C5         0.0300    1.1070   -0.6500 C.ar    1  UNL1       -0.0180
     10  C6         0.4860    0.0790    0.1480 C.ar    1  UNL1        0.1214
     11  O2         1.8300   -0.1730    0.3840 O.3     1  UNL1       -0.4874
     12  C7         2.7590    0.7080   -0.2590 C.3     1  UNL1        0.1147
     13  C8         4.1600    0.3340    0.0700 C.ar    1  UNL1       -0.0077
     14  C9         4.8000   -0.5670   -0.7530 C.ar    1  UNL1       -0.0552
     15  C10        6.1010   -0.9680   -0.5190 C.ar    1  UNL1       -0.0587
     16  C11        6.7910   -0.4700    0.5530 C.ar    1  UNL1       -0.0264
     17  C12        6.1350    0.4330    1.3710 C.ar    1  UNL1        0.1238
     18  F1         6.8060    0.9340    2.4350 F       1  UNL1       -0.2055
     19  C13        4.8370    0.8370    1.1420 C.ar    1  UNL1       -0.0201
     20  C14       -0.4670   -0.7400    0.7430 C.ar    1  UNL1       -0.0148
     21  C15       -1.7970   -0.5370    0.5470 C.ar    1  UNL1       -0.0199
     22  C16       -2.7090   -1.5380    1.2190 C.3     1  UNL1       -0.0252
     23  C17       -3.4940   -2.1480    0.0660 C.3     1  UNL1       -0.0421
     24  C18       -4.7410   -1.4450   -0.2980 C.3     1  UNL1        0.0081
     25 H          -5.8578    2.8034   -1.2371 H       1  UNL1        0.1937
     26 H          -1.6264    2.1336   -1.4844 H       1  UNL1        0.0639
     27 H           0.7255    1.7233   -1.0988 H       1  UNL1        0.0655
     28 H           2.5773    1.7097    0.0704 H       1  UNL1        0.0748
     29 H           2.6248    0.6325   -1.3179 H       1  UNL1        0.0748
     30 H           4.2940   -0.9524   -1.5657 H       1  UNL1        0.0621
     31 H           6.5535   -1.6443   -1.1537 H       1  UNL1        0.0619
     32 H           7.7637   -0.7571    0.7440 H       1  UNL1        0.0646
     33 H           4.3821    1.5131    1.7752 H       1  UNL1        0.0650
     34 H          -0.1583   -1.5184    1.3462 H       1  UNL1        0.0657
     35 H          -3.3645   -1.0516    1.9108 H       1  UNL1        0.0314
     36 H          -2.1726   -2.2697    1.7864 H       1  UNL1        0.0314
     37 H          -3.7483   -3.1519    0.3353 H       1  UNL1        0.0272
     38 H          -2.8574   -2.0788   -0.7912 H       1  UNL1        0.0272
     39 H          -5.1249   -1.9046   -1.1847 H       1  UNL1        0.0344
     40 H          -5.3728   -1.5319    0.5612 H       1  UNL1        0.0344
@<TRIPOS>BOND
     1     1     2    2
     2     2     3   ar
     3     2     6   ar
     4     3     4   ar
     5     4     5   ar
     6     5     6   ar
     7     5    24    1
     8     6     7    1
     9     7     8   ar
    10     7    21   ar
    11     8     9   ar
    12     9    10   ar
    13    10    11    1
    14    10    20   ar
    15    11    12    1
    16    12    13    1
    17    13    14   ar
    18    13    19   ar
    19    14    15   ar
    20    15    16   ar
    21    16    17   ar
    22    17    18    1
    23    17    19   ar
    24    20    21   ar
    25    21    22    1
    26    22    23    1
    27    23    24    1
    28     3    25    1
    29     8    26    1
    30     9    27    1
    31    12    28    1
    32    12    29    1
    33    14    30    1
    34    15    31    1
    35    16    32    1
    36    19    33    1
    37    20    34    1
    38    22    35    1
    39    22    36    1
    40    23    37    1
    41    23    38    1
    42    24    39    1
    43    24    40    1
@<TRIPOS>MOLECULE
../data/bude_mols_rdkit_confs2/molecule_62.pdb
 40 43 0 0 0
SMALL
GASTEIGER

@<TRIPOS>ATOM
      1  O1        -3.6930   -3.2150   -0.7850 O.2     1  UNL1       -0.2446
      2  C1        -4.2190   -2.1070   -0.6050 C.ar    1  UNL1        0.3487
      3  N1        -5.5370   -1.8700   -0.6700 N.ar    1  UNL1       -0.2263
      4  N2        -5.7950   -0.6100   -0.4410 N.ar    1  UNL1       -0.1561
      5  C2        -4.6100    0.0480   -0.2090 C.ar    1  UNL1        0.1384
      6  N3        -3.6700   -0.9200   -0.3200 N.ar    1  UNL1       -0.2473
      7  C3        -2.2700   -0.7130   -0.1680 C.ar    1  UNL1        0.0560
      8  C4        -1.6320   -1.8380    0.2460 C.ar    1  UNL1       -0.0339
      9  C5        -0.2470   -1.7640    0.3950 C.ar    1  UNL1       -0.0180
     10  C6         0.4670   -0.6280    0.1460 C.ar    1  UNL1        0.1214
     11  O2         1.8700   -0.6010    0.3090 O.3     1  UNL1       -0.4874
     12  C7         2.6280    0.5410    0.0640 C.3     1  UNL1        0.1147
     13  C8         4.0530    0.2350    0.3290 C.ar    1  UNL1       -0.0077
     14  C9         5.0090    1.2090    0.1580 C.ar    1  UNL1       -0.0552
     15  C10        6.3520    0.9410    0.4010 C.ar    1  UNL1       -0.0587
     16  C11        6.7270   -0.3350    0.8250 C.ar    1  UNL1       -0.0264
     17  C12        5.7800   -1.3180    1.0000 C.ar    1  UNL1        0.1238
     18  F1         6.1860   -2.5370    1.4100 F       1  UNL1       -0.2055
     19  C13        4.4440   -0.9990    0.7420 C.ar    1  UNL1       -0.0201
     20  C14       -0.1910    0.5260   -0.2770 C.ar    1  UNL1       -0.0148
     21  C15       -1.5430    0.4620   -0.4240 C.ar    1  UNL1       -0.0199
     22  C16       -2.1870    1.7550   -0.8190 C.3     1  UNL1       -0.0252
     23  C17       -3.2100    2.0810    0.2540 C.3     1  UNL1       -0.0421
     24  C18       -4.5550    1.5020    0.0620 C.3     1  UNL1        0.0081
     25 H          -6.2185   -2.5534   -0.8641 H       1  UNL1        0.1937
     26 H          -2.1491   -2.7094    0.4418 H       1  UNL1        0.0639
     27 H           0.2606   -2.6064    0.7077 H       1  UNL1        0.0655
     28 H           2.3045    1.3321    0.7077 H       1  UNL1        0.0748
     29 H           2.5054    0.8469   -0.9540 H       1  UNL1        0.0748
     30 H           4.7261    2.1509   -0.1547 H       1  UNL1        0.0621
     31 H           7.0632    1.6771    0.2693 H       1  UNL1        0.0619
     32 H           7.7211   -0.5426    1.0085 H       1  UNL1        0.0646
     33 H           3.7263   -1.7294    0.8702 H       1  UNL1        0.0650
     34 H           0.3277    1.3967   -0.4715 H       1  UNL1        0.0657
     35 H          -2.6693    1.6514   -1.7685 H       1  UNL1        0.0314
     36 H          -1.4600    2.5352   -0.9061 H       1  UNL1        0.0314
     37 H          -3.3142    3.1451    0.2947 H       1  UNL1        0.0272
     38 H          -2.8331    1.6437    1.1549 H       1  UNL1        0.0272
     39 H          -5.1207    1.6897    0.9506 H       1  UNL1        0.0344
     40 H          -4.9450    1.9712   -0.8170 H       1  UNL1        0.0344
@<TRIPOS>BOND
     1     1     2    2
     2     2     3   ar
     3     2     6   ar
     4     3     4   ar
     5     4     5   ar
     6     5     6   ar
     7     5    24    1
     8     6     7    1
     9     7     8   ar
    10     7    21   ar
    11     8     9   ar
    12     9    10   ar
    13    10    11    1
    14    10    20   ar
    15    11    12    1
    16    12    13    1
    17    13    14   ar
    18    13    19   ar
    19    14    15   ar
    20    15    16   ar
    21    16    17   ar
    22    17    18    1
    23    17    19   ar
    24    20    21   ar
    25    21    22    1
    26    22    23    1
    27    23    24    1
    28     3    25    1
    29     8    26    1
    30     9    27    1
    31    12    28    1
    32    12    29    1
    33    14    30    1
    34    15    31    1
    35    16    32    1
    36    19    33    1
    37    20    34    1
    38    22    35    1
    39    22    36    1
    40    23    37    1
    41    23    38    1
    42    24    39    1
    43    24    40    1
@<TRIPOS>MOLECULE
../data/bude_mols_rdkit_confs2/molecule_62.pdb
 40 43 0 0 0
SMALL
GASTEIGER

@<TRIPOS>ATOM
      1  O1        -3.6370   -1.8700   -2.7300 O.2     1  UNL1       -0.2446
      2  C1        -4.1960   -1.0760   -1.9610 C.ar    1  UNL1        0.3487
      3  N1        -5.5240   -0.8360   -1.8900 N.ar    1  UNL1       -0.2263
      4  N2        -5.7510    0.0780   -0.9400 N.ar    1  UNL1       -0.1561
      5  C2        -4.5780    0.4370   -0.3920 C.ar    1  UNL1        0.1384
      6  N3        -3.6390   -0.2970   -1.0480 N.ar    1  UNL1       -0.2473
      7  C3        -2.2320   -0.2500   -0.8040 C.ar    1  UNL1        0.0560
      8  C4        -1.5340   -0.4270   -1.9630 C.ar    1  UNL1       -0.0339
      9  C5        -0.1580   -0.4120   -1.8880 C.ar    1  UNL1       -0.0180
     10  C6         0.4800   -0.2190   -0.6530 C.ar    1  UNL1        0.1214
     11  O2         1.8570   -0.2070   -0.6020 O.3     1  UNL1       -0.4874
     12  C7         2.5910   -0.0240    0.5700 C.3     1  UNL1        0.1147
     13  C8         4.0400   -0.0730    0.2260 C.ar    1  UNL1       -0.0077
     14  C9         4.9950    0.0800    1.2000 C.ar    1  UNL1       -0.0552
     15  C10        6.3410    0.0370    0.9000 C.ar    1  UNL1       -0.0587
     16  C11        6.7570   -0.1620   -0.3950 C.ar    1  UNL1       -0.0264
     17  C12        5.8200   -0.3170   -1.3840 C.ar    1  UNL1        0.1238
     18  F1         6.1890   -0.5120   -2.6560 F       1  UNL1       -0.2055
     19  C13        4.4640   -0.2740   -1.0810 C.ar    1  UNL1       -0.0201
     20  C14       -0.2690   -0.0440    0.4900 C.ar    1  UNL1       -0.0148
     21  C15       -1.6440   -0.0570    0.4360 C.ar    1  UNL1       -0.0199
     22  C16       -2.3260    0.1340    1.7260 C.3     1  UNL1       -0.0252
     23  C17       -3.4940    0.9860    1.8180 C.3     1  UNL1       -0.0421
     24  C18       -4.3060    1.4050    0.6840 C.3     1  UNL1        0.0081
     25 H          -6.2131   -1.2646   -2.4474 H       1  UNL1        0.1937
     26 H          -2.0189   -0.5670   -2.8631 H       1  UNL1        0.0639
     27 H           0.4051   -0.5431   -2.7428 H       1  UNL1        0.0655
     28 H           2.3582   -0.8009    1.2679 H       1  UNL1        0.0748
     29 H           2.3487    0.9191    1.0137 H       1  UNL1        0.0748
     30 H           4.7000    0.2304    2.1774 H       1  UNL1        0.0621
     31 H           7.0387    0.1548    1.6513 H       1  UNL1        0.0619
     32 H           7.7636   -0.1944   -0.6204 H       1  UNL1        0.0646
     33 H           3.7672   -0.3923   -1.8330 H       1  UNL1        0.0650
     34 H           0.2056    0.0982    1.3953 H       1  UNL1        0.0657
     35 H          -1.5993    0.5351    2.4012 H       1  UNL1        0.0314
     36 H          -2.7185   -0.8385    1.9385 H       1  UNL1        0.0314
     37 H          -3.1535    1.8908    2.2766 H       1  UNL1        0.0272
     38 H          -4.1767    0.3296    2.3160 H       1  UNL1        0.0272
     39 H          -5.2528    1.7161    1.0735 H       1  UNL1        0.0344
     40 H          -3.7153    2.1599    0.2086 H       1  UNL1        0.0344
@<TRIPOS>BOND
     1     1     2    2
     2     2     3   ar
     3     2     6   ar
     4     3     4   ar
     5     4     5   ar
     6     5     6   ar
     7     5    24    1
     8     6     7    1
     9     7     8   ar
    10     7    21   ar
    11     8     9   ar
    12     9    10   ar
    13    10    11    1
    14    10    20   ar
    15    11    12    1
    16    12    13    1
    17    13    14   ar
    18    13    19   ar
    19    14    15   ar
    20    15    16   ar
    21    16    17   ar
    22    17    18    1
    23    17    19   ar
    24    20    21   ar
    25    21    22    1
    26    22    23    1
    27    23    24    1
    28     3    25    1
    29     8    26    1
    30     9    27    1
    31    12    28    1
    32    12    29    1
    33    14    30    1
    34    15    31    1
    35    16    32    1
    36    19    33    1
    37    20    34    1
    38    22    35    1
    39    22    36    1
    40    23    37    1
    41    23    38    1
    42    24    39    1
    43    24    40    1
@<TRIPOS>MOLECULE
../data/bude_mols_rdkit_confs2/molecule_62.pdb
 40 43 0 0 0
SMALL
GASTEIGER

@<TRIPOS>ATOM
      1  O1        -2.8450    3.5230    1.3040 O.2     1  UNL1       -0.2446
      2  C1        -3.6320    2.6510    0.8890 C.ar    1  UNL1        0.3487
      3  N1        -4.9900    2.7850    0.8350 N.ar    1  UNL1       -0.2263
      4  N2        -5.5270    1.6670    0.3460 N.ar    1  UNL1       -0.1561
      5  C2        -4.5520    0.8150    0.0820 C.ar    1  UNL1        0.1384
      6  N3        -3.3900    1.4260    0.4160 N.ar    1  UNL1       -0.2473
      7  C3        -2.0960    0.8720    0.2870 C.ar    1  UNL1        0.0560
      8  C4        -1.1500    1.8400    0.0620 C.ar    1  UNL1       -0.0339
      9  C5         0.1730    1.4050   -0.0650 C.ar    1  UNL1       -0.0180
     10  C6         0.4930    0.0720    0.0310 C.ar    1  UNL1        0.1214
     11  O2         1.8250   -0.3450   -0.0990 O.3     1  UNL1       -0.4874
     12  C7         2.8710    0.5540   -0.3280 C.3     1  UNL1        0.1147
     13  C8         4.1370   -0.2150   -0.4130 C.ar    1  UNL1       -0.0077
     14  C9         4.5750   -0.6960   -1.6280 C.ar    1  UNL1       -0.0552
     15  C10        5.7550   -1.4050   -1.6670 C.ar    1  UNL1       -0.0587
     16  C11        6.5080   -1.6470   -0.5320 C.ar    1  UNL1       -0.0264
     17  C12        6.0600   -1.1630    0.6640 C.ar    1  UNL1        0.1238
     18  F1         6.7470   -1.3660    1.8010 F       1  UNL1       -0.2055
     19  C13        4.8670   -0.4420    0.7280 C.ar    1  UNL1       -0.0201
     20  C14       -0.4830   -0.8740    0.2570 C.ar    1  UNL1       -0.0148
     21  C15       -1.8130   -0.4830    0.3900 C.ar    1  UNL1       -0.0199
     22  C16       -2.6340   -1.6830    0.6030 C.3     1  UNL1       -0.0252
     23  C17       -4.1010   -1.4940    0.6220 C.3     1  UNL1       -0.0421
     24  C18       -4.6670   -0.5960   -0.4550 C.3     1  UNL1        0.0081
     25 H          -5.4942    3.5833    1.1139 H       1  UNL1        0.1937
     26 H          -1.4019    2.8382   -0.0098 H       1  UNL1        0.0639
     27 H           0.9208    2.0959   -0.2335 H       1  UNL1        0.0655
     28 H           2.9276    1.2559    0.4776 H       1  UNL1        0.0748
     29 H           2.7035    1.0897   -1.2390 H       1  UNL1        0.0748
     30 H           4.0311   -0.5287   -2.4889 H       1  UNL1        0.0621
     31 H           6.0888   -1.7680   -2.5735 H       1  UNL1        0.0619
     32 H           7.3890   -2.1816   -0.5878 H       1  UNL1        0.0646
     33 H           4.5327   -0.0787    1.6342 H       1  UNL1        0.0650
     34 H          -0.2286   -1.8716    0.3277 H       1  UNL1        0.0657
     35 H          -2.3502   -2.1063    1.5438 H       1  UNL1        0.0314
     36 H          -2.4435   -2.3063   -0.2456 H       1  UNL1        0.0314
     37 H          -4.3649   -1.0745    1.5703 H       1  UNL1        0.0272
     38 H          -4.5192   -2.4619    0.4402 H       1  UNL1        0.0272
     39 H          -4.1037   -0.6977   -1.3590 H       1  UNL1        0.0344
     40 H          -5.6810   -0.8483   -0.6855 H       1  UNL1        0.0344
@<TRIPOS>BOND
     1     1     2    2
     2     2     3   ar
     3     2     6   ar
     4     3     4   ar
     5     4     5   ar
     6     5     6   ar
     7     5    24    1
     8     6     7    1
     9     7     8   ar
    10     7    21   ar
    11     8     9   ar
    12     9    10   ar
    13    10    11    1
    14    10    20   ar
    15    11    12    1
    16    12    13    1
    17    13    14   ar
    18    13    19   ar
    19    14    15   ar
    20    15    16   ar
    21    16    17   ar
    22    17    18    1
    23    17    19   ar
    24    20    21   ar
    25    21    22    1
    26    22    23    1
    27    23    24    1
    28     3    25    1
    29     8    26    1
    30     9    27    1
    31    12    28    1
    32    12    29    1
    33    14    30    1
    34    15    31    1
    35    16    32    1
    36    19    33    1
    37    20    34    1
    38    22    35    1
    39    22    36    1
    40    23    37    1
    41    23    38    1
    42    24    39    1
    43    24    40    1
@<TRIPOS>MOLECULE
../data/bude_mols_rdkit_confs2/molecule_62.pdb
 40 43 0 0 0
SMALL
GASTEIGER

@<TRIPOS>ATOM
      1  O1        -3.3890   -3.0720    0.5520 O.2     1  UNL1       -0.2446
      2  C1        -4.0370   -2.0460    0.3460 C.ar    1  UNL1        0.3487
      3  N1        -5.3830   -1.9730    0.2680 N.ar    1  UNL1       -0.2263
      4  N2        -5.7570   -0.7050    0.0400 N.ar    1  UNL1       -0.1561
      5  C2        -4.6570    0.0310   -0.0280 C.ar    1  UNL1        0.1384
      6  N3        -3.6090   -0.8060    0.1600 N.ar    1  UNL1       -0.2473
      7  C3        -2.2230   -0.4460    0.1550 C.ar    1  UNL1        0.0560
      8  C4        -1.4220   -1.4730   -0.2660 C.ar    1  UNL1       -0.0339
      9  C5        -0.0620   -1.2620   -0.3110 C.ar    1  UNL1       -0.0180
     10  C6         0.4960   -0.0400    0.0580 C.ar    1  UNL1        0.1214
     11  O2         1.8730    0.1500    0.0050 O.3     1  UNL1       -0.4874
     12  C7         2.7080   -0.9020   -0.4270 C.3     1  UNL1        0.1147
     13  C8         4.1110   -0.4580   -0.3950 C.ar    1  UNL1       -0.0077
     14  C9         4.4850    0.8210    0.0090 C.ar    1  UNL1       -0.0552
     15  C10        5.7900    1.2310    0.0370 C.ar    1  UNL1       -0.0587
     16  C11        6.7940    0.3780   -0.3400 C.ar    1  UNL1       -0.0264
     17  C12        6.4610   -0.9090   -0.7510 C.ar    1  UNL1        0.1238
     18  F1         7.4290   -1.7850   -1.1340 F       1  UNL1       -0.2055
     19  C13        5.1400   -1.3070   -0.7740 C.ar    1  UNL1       -0.0201
     20  C14       -0.3550    0.9520    0.4700 C.ar    1  UNL1       -0.0148
     21  C15       -1.7350    0.8070    0.5400 C.ar    1  UNL1       -0.0199
     22  C16       -2.3870    2.0470    1.0010 C.3     1  UNL1       -0.0252
     23  C17       -3.8640    2.0530    1.0160 C.3     1  UNL1       -0.0421
     24  C18       -4.5300    1.5170   -0.2360 C.3     1  UNL1        0.0081
     25 H          -5.9978   -2.7359    0.3640 H       1  UNL1        0.1937
     26 H          -1.8266   -2.3813   -0.5423 H       1  UNL1        0.0639
     27 H           0.5573   -2.0256   -0.6248 H       1  UNL1        0.0655
     28 H           2.4443   -1.1797   -1.4261 H       1  UNL1        0.0748
     29 H           2.5852   -1.7446    0.2210 H       1  UNL1        0.0748
     30 H           3.7498    1.4850    0.2983 H       1  UNL1        0.0621
     31 H           6.0198    2.1891    0.3441 H       1  UNL1        0.0619
     32 H           7.7792    0.6845   -0.3195 H       1  UNL1        0.0646
     33 H           4.9109   -2.2648   -1.0824 H       1  UNL1        0.0650
     34 H           0.0529    1.8595    0.7442 H       1  UNL1        0.0657
     35 H          -2.0659    2.8404    0.3588 H       1  UNL1        0.0314
     36 H          -2.0946    2.1550    2.0246 H       1  UNL1        0.0314
     37 H          -4.1885    3.0630    1.1557 H       1  UNL1        0.0272
     38 H          -4.1531    1.3945    1.8083 H       1  UNL1        0.0272
     39 H          -5.4959    1.9595   -0.3630 H       1  UNL1        0.0344
     40 H          -3.9615    1.7450   -1.1133 H       1  UNL1        0.0344
@<TRIPOS>BOND
     1     1     2    2
     2     2     3   ar
     3     2     6   ar
     4     3     4   ar
     5     4     5   ar
     6     5     6   ar
     7     5    24    1
     8     6     7    1
     9     7     8   ar
    10     7    21   ar
    11     8     9   ar
    12     9    10   ar
    13    10    11    1
    14    10    20   ar
    15    11    12    1
    16    12    13    1
    17    13    14   ar
    18    13    19   ar
    19    14    15   ar
    20    15    16   ar
    21    16    17   ar
    22    17    18    1
    23    17    19   ar
    24    20    21   ar
    25    21    22    1
    26    22    23    1
    27    23    24    1
    28     3    25    1
    29     8    26    1
    30     9    27    1
    31    12    28    1
    32    12    29    1
    33    14    30    1
    34    15    31    1
    35    16    32    1
    36    19    33    1
    37    20    34    1
    38    22    35    1
    39    22    36    1
    40    23    37    1
    41    23    38    1
    42    24    39    1
    43    24    40    1
@<TRIPOS>MOLECULE
../data/bude_mols_rdkit_confs2/molecule_62.pdb
 40 43 0 0 0
SMALL
GASTEIGER

@<TRIPOS>ATOM
      1  O1        -3.6700   -2.5880    1.5020 O.2     1  UNL1       -0.2446
      2  C1        -4.2450   -1.6170    0.9830 C.ar    1  UNL1        0.3487
      3  N1        -5.5970   -1.4450    0.8990 N.ar    1  UNL1       -0.2263
      4  N2        -5.8550   -0.3110    0.2970 N.ar    1  UNL1       -0.1561
      5  C2        -4.6880    0.3000   -0.0360 C.ar    1  UNL1        0.1384
      6  N3        -3.7110   -0.5380    0.4020 N.ar    1  UNL1       -0.2473
      7  C3        -2.2970   -0.3420    0.2830 C.ar    1  UNL1        0.0560
      8  C4        -1.6080   -1.5150    0.2790 C.ar    1  UNL1       -0.0339
      9  C5        -0.2140   -1.4280    0.1980 C.ar    1  UNL1       -0.0180
     10  C6         0.4690   -0.2520    0.1240 C.ar    1  UNL1        0.1214
     11  O2         1.8430   -0.1220    0.0450 O.3     1  UNL1       -0.4874
     12  C7         2.7390   -1.1900    0.0280 C.3     1  UNL1        0.1147
     13  C8         4.1400   -0.7140   -0.0640 C.ar    1  UNL1       -0.0077
     14  C9         4.3950    0.6580   -0.1200 C.ar    1  UNL1       -0.0552
     15  C10        5.6810    1.1430   -0.2060 C.ar    1  UNL1       -0.0587
     16  C11        6.7600    0.2650   -0.2390 C.ar    1  UNL1       -0.0264
     17  C12        6.5190   -1.0780   -0.1840 C.ar    1  UNL1        0.1238
     18  F1         7.5420   -1.9680   -0.2130 F       1  UNL1       -0.2055
     19  C13        5.2180   -1.5670   -0.0970 C.ar    1  UNL1       -0.0201
     20  C14       -0.2890    0.9280    0.1300 C.ar    1  UNL1       -0.0148
     21  C15       -1.6400    0.8960    0.2060 C.ar    1  UNL1       -0.0199
     22  C16       -2.3390    2.2300    0.1310 C.3     1  UNL1       -0.0252
     23  C17       -3.2560    2.0660   -1.1000 C.3     1  UNL1       -0.0421
     24  C18       -4.6200    1.6130   -0.7010 C.3     1  UNL1        0.0081
     25 H          -6.2727   -2.0755    1.2383 H       1  UNL1        0.1937
     26 H          -2.0906   -2.4256    0.3331 H       1  UNL1        0.0639
     27 H           0.3283   -2.3060    0.1941 H       1  UNL1        0.0655
     28 H           2.5254   -1.8112   -0.8166 H       1  UNL1        0.0748
     29 H           2.6275   -1.7399    0.9391 H       1  UNL1        0.0748
     30 H           3.6045    1.3211   -0.0965 H       1  UNL1        0.0621
     31 H           5.8450    2.1611   -0.2461 H       1  UNL1        0.0619
     32 H           7.7259    0.6227   -0.3039 H       1  UNL1        0.0646
     33 H           5.0604   -2.5861   -0.0566 H       1  UNL1        0.0650
     34 H           0.1930    1.8389    0.0754 H       1  UNL1        0.0657
     35 H          -1.6378    3.0251   -0.0138 H       1  UNL1        0.0314
     36 H          -2.8705    2.4809    1.0251 H       1  UNL1        0.0314
     37 H          -2.8271    1.3416   -1.7605 H       1  UNL1        0.0272
     38 H          -3.3433    3.0153   -1.5859 H       1  UNL1        0.0272
     39 H          -5.0258    2.3422   -0.0312 H       1  UNL1        0.0344
     40 H          -5.1705    1.5072   -1.6124 H       1  UNL1        0.0344
@<TRIPOS>BOND
     1     1     2    2
     2     2     3   ar
     3     2     6   ar
     4     3     4   ar
     5     4     5   ar
     6     5     6   ar
     7     5    24    1
     8     6     7    1
     9     7     8   ar
    10     7    21   ar
    11     8     9   ar
    12     9    10   ar
    13    10    11    1
    14    10    20   ar
    15    11    12    1
    16    12    13    1
    17    13    14   ar
    18    13    19   ar
    19    14    15   ar
    20    15    16   ar
    21    16    17   ar
    22    17    18    1
    23    17    19   ar
    24    20    21   ar
    25    21    22    1
    26    22    23    1
    27    23    24    1
    28     3    25    1
    29     8    26    1
    30     9    27    1
    31    12    28    1
    32    12    29    1
    33    14    30    1
    34    15    31    1
    35    16    32    1
    36    19    33    1
    37    20    34    1
    38    22    35    1
    39    22    36    1
    40    23    37    1
    41    23    38    1
    42    24    39    1
    43    24    40    1
@<TRIPOS>MOLECULE
../data/bude_mols_rdkit_confs2/molecule_62.pdb
 40 43 0 0 0
SMALL
GASTEIGER

@<TRIPOS>ATOM
      1  O1        -3.6030    3.3760   -0.5750 O.2     1  UNL1       -0.2446
      2  C1        -4.1550    2.2950   -0.2680 C.ar    1  UNL1        0.3487
      3  N1        -5.5010    2.1080   -0.1760 N.ar    1  UNL1       -0.2263
      4  N2        -5.7560    0.8360    0.1680 N.ar    1  UNL1       -0.1561
      5  C2        -4.5920    0.2060    0.2970 C.ar    1  UNL1        0.1384
      6  N3        -3.6160    1.1100    0.0290 N.ar    1  UNL1       -0.2473
      7  C3        -2.2180    0.8290    0.0620 C.ar    1  UNL1        0.0560
      8  C4        -1.5130    1.9590    0.3800 C.ar    1  UNL1       -0.0339
      9  C5        -0.1240    1.8510    0.4290 C.ar    1  UNL1       -0.0180
     10  C6         0.5250    0.6640    0.1720 C.ar    1  UNL1        0.1214
     11  O2         1.9330    0.5930    0.2310 O.3     1  UNL1       -0.4874
     12  C7         2.5340   -0.6480   -0.0420 C.3     1  UNL1        0.1147
     13  C8         4.0160   -0.4480    0.0880 C.ar    1  UNL1       -0.0077
     14  C9         4.7420   -0.0740   -1.0130 C.ar    1  UNL1       -0.0552
     15  C10        6.0950    0.1090   -0.8990 C.ar    1  UNL1       -0.0587
     16  C11        6.7580   -0.0710    0.2930 C.ar    1  UNL1       -0.0264
     17  C12        5.9980   -0.4480    1.3790 C.ar    1  UNL1        0.1238
     18  F1         6.6220   -0.6390    2.5910 F       1  UNL1       -0.2055
     19  C13        4.6480   -0.6360    1.2870 C.ar    1  UNL1       -0.0201
     20  C14       -0.2140   -0.4520   -0.1430 C.ar    1  UNL1       -0.0148
     21  C15       -1.5960   -0.4040   -0.2070 C.ar    1  UNL1       -0.0199
     22  C16       -2.1760   -1.7000   -0.5350 C.3     1  UNL1       -0.0252
     23  C17       -3.6490   -1.8020   -0.5770 C.3     1  UNL1       -0.0421
     24  C18       -4.3780   -1.2370    0.6310 C.3     1  UNL1        0.0081
     25 H          -6.1825    2.8000   -0.3372 H       1  UNL1        0.1937
     26 H          -1.9899    2.8531    0.5752 H       1  UNL1        0.0639
     27 H           0.4348    2.6859    0.6650 H       1  UNL1        0.0655
     28 H           2.2904   -0.9652   -1.0344 H       1  UNL1        0.0748
     29 H           2.1866   -1.4008    0.6344 H       1  UNL1        0.0748
     30 H           4.2729    0.0687   -1.9211 H       1  UNL1        0.0621
     31 H           6.6335    0.3906   -1.7331 H       1  UNL1        0.0619
     32 H           7.7774    0.0698    0.3703 H       1  UNL1        0.0646
     33 H           4.1067   -0.9188    2.1189 H       1  UNL1        0.0650
     34 H           0.2709   -1.3424   -0.3354 H       1  UNL1        0.0657
     35 H          -1.8279   -2.4000    0.1955 H       1  UNL1        0.0314
     36 H          -1.8629   -1.8898   -1.5404 H       1  UNL1        0.0314
     37 H          -3.9056   -2.8373   -0.6626 H       1  UNL1        0.0272
     38 H          -3.9611   -1.2102   -1.4121 H       1  UNL1        0.0272
     39 H          -5.3141   -1.7349    0.7751 H       1  UNL1        0.0344
     40 H          -3.8255   -1.3675    1.5379 H       1  UNL1        0.0344
@<TRIPOS>BOND
     1     1     2    2
     2     2     3   ar
     3     2     6   ar
     4     3     4   ar
     5     4     5   ar
     6     5     6   ar
     7     5    24    1
     8     6     7    1
     9     7     8   ar
    10     7    21   ar
    11     8     9   ar
    12     9    10   ar
    13    10    11    1
    14    10    20   ar
    15    11    12    1
    16    12    13    1
    17    13    14   ar
    18    13    19   ar
    19    14    15   ar
    20    15    16   ar
    21    16    17   ar
    22    17    18    1
    23    17    19   ar
    24    20    21   ar
    25    21    22    1
    26    22    23    1
    27    23    24    1
    28     3    25    1
    29     8    26    1
    30     9    27    1
    31    12    28    1
    32    12    29    1
    33    14    30    1
    34    15    31    1
    35    16    32    1
    36    19    33    1
    37    20    34    1
    38    22    35    1
    39    22    36    1
    40    23    37    1
    41    23    38    1
    42    24    39    1
    43    24    40    1
@<TRIPOS>MOLECULE
../data/bude_mols_rdkit_confs2/molecule_62.pdb
 40 43 0 0 0
SMALL
GASTEIGER

@<TRIPOS>ATOM
      1  O1        -3.6380    3.2270   -0.7650 O.2     1  UNL1       -0.2446
      2  C1        -4.2140    2.1850   -0.4350 C.ar    1  UNL1        0.3487
      3  N1        -5.5590    2.0150   -0.3690 N.ar    1  UNL1       -0.2263
      4  N2        -5.8120    0.7820    0.0110 N.ar    1  UNL1       -0.1561
      5  C2        -4.6320    0.1100    0.2060 C.ar    1  UNL1        0.1384
      6  N3        -3.6670    1.0190   -0.0800 N.ar    1  UNL1       -0.2473
      7  C3        -2.2460    0.8330   -0.0340 C.ar    1  UNL1        0.0560
      8  C4        -1.5550    1.9860    0.2150 C.ar    1  UNL1       -0.0339
      9  C5        -0.1670    1.8870    0.2430 C.ar    1  UNL1       -0.0180
     10  C6         0.5140    0.6960    0.0340 C.ar    1  UNL1        0.1214
     11  O2         1.9010    0.6550    0.0720 O.3     1  UNL1       -0.4874
     12  C7         2.5660   -0.5680   -0.1430 C.3     1  UNL1        0.1147
     13  C8         4.0370   -0.3660   -0.0550 C.ar    1  UNL1       -0.0077
     14  C9         4.5670    0.8710    0.2020 C.ar    1  UNL1       -0.0552
     15  C10        5.9250    1.0320    0.2790 C.ar    1  UNL1       -0.0587
     16  C11        6.8050   -0.0200    0.1040 C.ar    1  UNL1       -0.0264
     17  C12        6.2670   -1.2660   -0.1560 C.ar    1  UNL1        0.1238
     18  F1         7.1140   -2.3070   -0.3300 F       1  UNL1       -0.2055
     19  C13        4.9040   -1.4200   -0.2310 C.ar    1  UNL1       -0.0201
     20  C14       -0.2150   -0.4750   -0.2170 C.ar    1  UNL1       -0.0148
     21  C15       -1.5750   -0.3770   -0.2440 C.ar    1  UNL1       -0.0199
     22  C16       -2.3020   -1.6880   -0.4460 C.3     1  UNL1       -0.0252
     23  C17       -3.2360   -1.8810    0.7300 C.3     1  UNL1       -0.0421
     24  C18       -4.5780   -1.3050    0.6130 C.3     1  UNL1        0.0081
     25 H          -6.2342    2.7021   -0.5723 H       1  UNL1        0.1937
     26 H          -2.0379    2.8840    0.3741 H       1  UNL1        0.0639
     27 H           0.3824    2.7407    0.4282 H       1  UNL1        0.0655
     28 H           2.3166   -0.9417   -1.1141 H       1  UNL1        0.0748
     29 H           2.2614   -1.2710    0.6040 H       1  UNL1        0.0748
     30 H           3.9429    1.6816    0.3376 H       1  UNL1        0.0621
     31 H           6.3047    1.9715    0.4745 H       1  UNL1        0.0619
     32 H           7.8256    0.1201    0.1653 H       1  UNL1        0.0646
     33 H           4.5176   -2.3569   -0.4257 H       1  UNL1        0.0650
     34 H           0.2598   -1.3775   -0.3754 H       1  UNL1        0.0657
     35 H          -1.5979   -2.4926   -0.4883 H       1  UNL1        0.0314
     36 H          -2.8520   -1.6746   -1.3637 H       1  UNL1        0.0314
     37 H          -2.7701   -1.4430    1.5879 H       1  UNL1        0.0272
     38 H          -3.3909   -2.9379    0.7922 H       1  UNL1        0.0272
     39 H          -5.1192   -1.8766   -0.1118 H       1  UNL1        0.0344
     40 H          -4.9984   -1.3422    1.5962 H       1  UNL1        0.0344
@<TRIPOS>BOND
     1     1     2    2
     2     2     3   ar
     3     2     6   ar
     4     3     4   ar
     5     4     5   ar
     6     5     6   ar
     7     5    24    1
     8     6     7    1
     9     7     8   ar
    10     7    21   ar
    11     8     9   ar
    12     9    10   ar
    13    10    11    1
    14    10    20   ar
    15    11    12    1
    16    12    13    1
    17    13    14   ar
    18    13    19   ar
    19    14    15   ar
    20    15    16   ar
    21    16    17   ar
    22    17    18    1
    23    17    19   ar
    24    20    21   ar
    25    21    22    1
    26    22    23    1
    27    23    24    1
    28     3    25    1
    29     8    26    1
    30     9    27    1
    31    12    28    1
    32    12    29    1
    33    14    30    1
    34    15    31    1
    35    16    32    1
    36    19    33    1
    37    20    34    1
    38    22    35    1
    39    22    36    1
    40    23    37    1
    41    23    38    1
    42    24    39    1
    43    24    40    1
@<TRIPOS>MOLECULE
../data/bude_mols_rdkit_confs2/molecule_62.pdb
 40 43 0 0 0
SMALL
GASTEIGER

@<TRIPOS>ATOM
      1  O1        -4.3020   -2.2250   -1.0290 O.2     1  UNL1       -0.2446
      2  C1        -4.2020   -0.9980   -1.1220 C.ar    1  UNL1        0.3487
      3  N1        -5.1880   -0.1590   -1.4960 N.ar    1  UNL1       -0.2263
      4  N2        -4.7090    1.0990   -1.4760 N.ar    1  UNL1       -0.1561
      5  C2        -3.4420    1.0700   -1.0980 C.ar    1  UNL1        0.1384
      6  N3        -3.1340   -0.2460   -0.8810 N.ar    1  UNL1       -0.2473
      7  C3        -1.8760   -0.7550   -0.4710 C.ar    1  UNL1        0.0560
      8  C4        -1.6550   -2.0100   -0.9800 C.ar    1  UNL1       -0.0339
      9  C5        -0.4450   -2.6120   -0.6280 C.ar    1  UNL1       -0.0180
     10  C6         0.4680   -1.9580    0.1940 C.ar    1  UNL1        0.1214
     11  O2         1.6540   -2.5910    0.5200 O.3     1  UNL1       -0.4874
     12  C7         2.6690   -2.0600    1.3250 C.3     1  UNL1        0.1147
     13  C8         3.2620   -0.8060    0.7710 C.ar    1  UNL1       -0.0077
     14  C9         3.0630   -0.4030   -0.5430 C.ar    1  UNL1       -0.0552
     15  C10        3.6330    0.7600   -0.9960 C.ar    1  UNL1       -0.0587
     16  C11        4.4160    1.5760   -0.2000 C.ar    1  UNL1       -0.0264
     17  C12        4.6080    1.1660    1.1070 C.ar    1  UNL1        0.1238
     18  F1         5.3610    1.9070    1.9560 F       1  UNL1       -0.2055
     19  C13        4.0400    0.0050    1.5640 C.ar    1  UNL1       -0.0201
     20  C14        0.1820   -0.6980    0.6700 C.ar    1  UNL1       -0.0148
     21  C15       -0.9980   -0.0610    0.3510 C.ar    1  UNL1       -0.0199
     22  C16       -1.0400    1.2640    0.9700 C.3     1  UNL1       -0.0252
     23  C17       -2.1290    2.1770    0.5670 C.3     1  UNL1       -0.0421
     24  C18       -2.4860    2.1970   -0.8990 C.3     1  UNL1        0.0081
     25 H          -6.1043   -0.4217   -1.7424 H       1  UNL1        0.1937
     26 H          -2.3430   -2.4816   -1.5877 H       1  UNL1        0.0639
     27 H          -0.2246   -3.5558   -0.9827 H       1  UNL1        0.0655
     28 H           3.4451   -2.7904    1.4201 H       1  UNL1        0.0748
     29 H           2.2308   -1.8149    2.2699 H       1  UNL1        0.0748
     30 H           2.4871   -0.9776   -1.1780 H       1  UNL1        0.0621
     31 H           3.4699    1.0387   -1.9762 H       1  UNL1        0.0619
     32 H           4.8356    2.4463   -0.5626 H       1  UNL1        0.0646
     33 H           4.2031   -0.2722    2.5446 H       1  UNL1        0.0650
     34 H           0.8654   -0.2206    1.2783 H       1  UNL1        0.0657
     35 H          -0.1146    1.7514    0.7442 H       1  UNL1        0.0314
     36 H          -1.2188    1.0718    2.0073 H       1  UNL1        0.0314
     37 H          -1.8401    3.1692    0.8443 H       1  UNL1        0.0272
     38 H          -3.0026    1.8115    1.0652 H       1  UNL1        0.0272
     39 H          -2.9471    3.1272   -1.1578 H       1  UNL1        0.0344
     40 H          -1.6192    2.0929   -1.5176 H       1  UNL1        0.0344
@<TRIPOS>BOND
     1     1     2    2
     2     2     3   ar
     3     2     6   ar
     4     3     4   ar
     5     4     5   ar
     6     5     6   ar
     7     5    24    1
     8     6     7    1
     9     7     8   ar
    10     7    21   ar
    11     8     9   ar
    12     9    10   ar
    13    10    11    1
    14    10    20   ar
    15    11    12    1
    16    12    13    1
    17    13    14   ar
    18    13    19   ar
    19    14    15   ar
    20    15    16   ar
    21    16    17   ar
    22    17    18    1
    23    17    19   ar
    24    20    21   ar
    25    21    22    1
    26    22    23    1
    27    23    24    1
    28     3    25    1
    29     8    26    1
    30     9    27    1
    31    12    28    1
    32    12    29    1
    33    14    30    1
    34    15    31    1
    35    16    32    1
    36    19    33    1
    37    20    34    1
    38    22    35    1
    39    22    36    1
    40    23    37    1
    41    23    38    1
    42    24    39    1
    43    24    40    1
@<TRIPOS>MOLECULE
../data/bude_mols_rdkit_confs2/molecule_62.pdb
 40 43 0 0 0
SMALL
GASTEIGER

@<TRIPOS>ATOM
      1  O1        -1.3130   -2.7700    1.8640 O.2     1  UNL1       -0.2446
      2  C1        -2.4000   -2.2470    1.5610 C.ar    1  UNL1        0.3487
      3  N1        -3.6270   -2.7030    1.9180 N.ar    1  UNL1       -0.2263
      4  N2        -4.5430   -1.9040    1.4300 N.ar    1  UNL1       -0.1561
      5  C2        -3.9440   -0.8780    0.7230 C.ar    1  UNL1        0.1384
      6  N3        -2.6190   -1.1420    0.8360 N.ar    1  UNL1       -0.2473
      7  C3        -1.5810   -0.3430    0.2620 C.ar    1  UNL1        0.0560
      8  C4        -0.4670   -1.0770    0.0090 C.ar    1  UNL1       -0.0339
      9  C5         0.6260   -0.3790   -0.5230 C.ar    1  UNL1       -0.0180
     10  C6         0.5760    0.9700   -0.7770 C.ar    1  UNL1        0.1214
     11  O2         1.6570    1.6430   -1.2990 O.3     1  UNL1       -0.4874
     12  C7         2.9000    1.1180   -1.6300 C.3     1  UNL1        0.1147
     13  C8         3.6520    0.5150   -0.5250 C.ar    1  UNL1       -0.0077
     14  C9         3.3280    0.6380    0.8120 C.ar    1  UNL1       -0.0552
     15  C10        4.0720    0.0460    1.8110 C.ar    1  UNL1       -0.0587
     16  C11        5.1830   -0.6960    1.4560 C.ar    1  UNL1       -0.0264
     17  C12        5.5250   -0.8320    0.1230 C.ar    1  UNL1        0.1238
     18  F1         6.6230   -1.5660   -0.2320 F       1  UNL1       -0.2055
     19  C13        4.7740   -0.2370   -0.8590 C.ar    1  UNL1       -0.0201
     20  C14       -0.5740    1.6970   -0.5140 C.ar    1  UNL1       -0.0148
     21  C15       -1.6310    1.0320   -0.0010 C.ar    1  UNL1       -0.0199
     22  C16       -2.8750    1.8630    0.1970 C.3     1  UNL1       -0.0252
     23  C17       -3.9660    1.1780   -0.6420 C.3     1  UNL1       -0.0421
     24  C18       -4.7650    0.1730    0.0920 C.3     1  UNL1        0.0081
     25 H          -3.8013   -3.5073    2.4584 H       1  UNL1        0.1937
     26 H          -0.4273   -2.0908    0.1976 H       1  UNL1        0.0639
     27 H           1.4955   -0.8948   -0.7303 H       1  UNL1        0.0655
     28 H           3.4931    1.9100   -2.0373 H       1  UNL1        0.0748
     29 H           2.7058    0.3221   -2.3182 H       1  UNL1        0.0748
     30 H           2.4984    1.1935    1.0731 H       1  UNL1        0.0621
     31 H           3.8051    0.1546    2.8020 H       1  UNL1        0.0619
     32 H           5.7567   -1.1480    2.1851 H       1  UNL1        0.0646
     33 H           5.0424   -0.3477   -1.8493 H       1  UNL1        0.0650
     34 H          -0.6208    2.7104   -0.7035 H       1  UNL1        0.0657
     35 H          -2.7140    2.8641   -0.1448 H       1  UNL1        0.0314
     36 H          -3.1496    1.9258    1.2292 H       1  UNL1        0.0314
     37 H          -3.4942    0.6902   -1.4693 H       1  UNL1        0.0272
     38 H          -4.6466    1.9473   -0.9419 H       1  UNL1        0.0272
     39 H          -5.3214    0.6740    0.8564 H       1  UNL1        0.0344
     40 H          -5.4017   -0.3077   -0.6210 H       1  UNL1        0.0344
@<TRIPOS>BOND
     1     1     2    2
     2     2     3   ar
     3     2     6   ar
     4     3     4   ar
     5     4     5   ar
     6     5     6   ar
     7     5    24    1
     8     6     7    1
     9     7     8   ar
    10     7    21   ar
    11     8     9   ar
    12     9    10   ar
    13    10    11    1
    14    10    20   ar
    15    11    12    1
    16    12    13    1
    17    13    14   ar
    18    13    19   ar
    19    14    15   ar
    20    15    16   ar
    21    16    17   ar
    22    17    18    1
    23    17    19   ar
    24    20    21   ar
    25    21    22    1
    26    22    23    1
    27    23    24    1
    28     3    25    1
    29     8    26    1
    30     9    27    1
    31    12    28    1
    32    12    29    1
    33    14    30    1
    34    15    31    1
    35    16    32    1
    36    19    33    1
    37    20    34    1
    38    22    35    1
    39    22    36    1
    40    23    37    1
    41    23    38    1
    42    24    39    1
    43    24    40    1
@<TRIPOS>MOLECULE
../data/bude_mols_rdkit_confs2/molecule_62.pdb
 40 43 0 0 0
SMALL
GASTEIGER

@<TRIPOS>ATOM
      1  O1        -2.4470    2.9960   -1.1010 O.2     1  UNL1       -0.2446
      2  C1        -3.0240    1.9180   -1.3180 C.ar    1  UNL1        0.3487
      3  N1        -4.1290    1.7840   -2.0630 N.ar    1  UNL1       -0.2263
      4  N2        -4.5020    0.5050   -2.0990 N.ar    1  UNL1       -0.1561
      5  C2        -3.6390   -0.2190   -1.3730 C.ar    1  UNL1        0.1384
      6  N3        -2.7420    0.6750   -0.9060 N.ar    1  UNL1       -0.2473
      7  C3        -1.6410    0.3310   -0.0760 C.ar    1  UNL1        0.0560
      8  C4        -0.6030    1.1990   -0.2730 C.ar    1  UNL1       -0.0339
      9  C5         0.5390    0.9880    0.5080 C.ar    1  UNL1       -0.0180
     10  C6         0.6250   -0.0230    1.4140 C.ar    1  UNL1        0.1214
     11  O2         1.7310   -0.2610    2.1980 O.3     1  UNL1       -0.4874
     12  C7         2.8860    0.5150    2.1310 C.3     1  UNL1        0.1147
     13  C8         3.5100    0.4720    0.7910 C.ar    1  UNL1       -0.0077
     14  C9         4.4600    1.3860    0.4340 C.ar    1  UNL1       -0.0552
     15  C10        5.0620    1.3590   -0.8080 C.ar    1  UNL1       -0.0587
     16  C11        4.6770    0.3640   -1.7070 C.ar    1  UNL1       -0.0264
     17  C12        3.7270   -0.5430   -1.3380 C.ar    1  UNL1        0.1238
     18  F1         3.3260   -1.5320   -2.1950 F       1  UNL1       -0.2055
     19  C13        3.1180   -0.5290   -0.1050 C.ar    1  UNL1       -0.0201
     20  C14       -0.4510   -0.8970    1.5930 C.ar    1  UNL1       -0.0148
     21  C15       -1.5650   -0.7110    0.8490 C.ar    1  UNL1       -0.0199
     22  C16       -2.6760   -1.7030    1.0710 C.3     1  UNL1       -0.0252
     23  C17       -2.8750   -2.3470   -0.2810 C.3     1  UNL1       -0.0421
     24  C18       -3.7920   -1.6630   -1.2100 C.3     1  UNL1        0.0081
     25 H          -4.5968    2.5217   -2.5171 H       1  UNL1        0.1937
     26 H          -0.6586    1.9673   -0.9597 H       1  UNL1        0.0639
     27 H           1.3449    1.6222    0.3924 H       1  UNL1        0.0655
     28 H           3.5888    0.1499    2.8504 H       1  UNL1        0.0748
     29 H           2.6128    1.5294    2.3341 H       1  UNL1        0.0748
     30 H           4.7349    2.1156    1.1101 H       1  UNL1        0.0621
     31 H           5.7780    2.0565   -1.0647 H       1  UNL1        0.0619
     32 H           5.1074    0.3145   -2.6437 H       1  UNL1        0.0646
     33 H           2.4019   -1.2274    0.1489 H       1  UNL1        0.0650
     34 H          -0.3966   -1.6672    2.2777 H       1  UNL1        0.0657
     35 H          -3.5689   -1.2073    1.3901 H       1  UNL1        0.0314
     36 H          -2.4418   -2.4161    1.8336 H       1  UNL1        0.0314
     37 H          -3.2551   -3.3338   -0.1176 H       1  UNL1        0.0272
     38 H          -1.9160   -2.3110   -0.7542 H       1  UNL1        0.0272
     39 H          -3.6624   -2.1092   -2.1739 H       1  UNL1        0.0344
     40 H          -4.7612   -1.7854   -0.7735 H       1  UNL1        0.0344
@<TRIPOS>BOND
     1     1     2    2
     2     2     3   ar
     3     2     6   ar
     4     3     4   ar
     5     4     5   ar
     6     5     6   ar
     7     5    24    1
     8     6     7    1
     9     7     8   ar
    10     7    21   ar
    11     8     9   ar
    12     9    10   ar
    13    10    11    1
    14    10    20   ar
    15    11    12    1
    16    12    13    1
    17    13    14   ar
    18    13    19   ar
    19    14    15   ar
    20    15    16   ar
    21    16    17   ar
    22    17    18    1
    23    17    19   ar
    24    20    21   ar
    25    21    22    1
    26    22    23    1
    27    23    24    1
    28     3    25    1
    29     8    26    1
    30     9    27    1
    31    12    28    1
    32    12    29    1
    33    14    30    1
    34    15    31    1
    35    16    32    1
    36    19    33    1
    37    20    34    1
    38    22    35    1
    39    22    36    1
    40    23    37    1
    41    23    38    1
    42    24    39    1
    43    24    40    1
@<TRIPOS>MOLECULE
../data/bude_mols_rdkit_confs2/molecule_62.pdb
 40 43 0 0 0
SMALL
GASTEIGER

@<TRIPOS>ATOM
      1  O1        -3.6200    0.4700    3.4120 O.2     1  UNL1       -0.2446
      2  C1        -4.1640    0.2740    2.3130 C.ar    1  UNL1        0.3487
      3  N1        -5.4890    0.2190    2.1030 N.ar    1  UNL1       -0.2263
      4  N2        -5.7310   -0.0010    0.8160 N.ar    1  UNL1       -0.1561
      5  C2        -4.5630   -0.0940    0.1580 C.ar    1  UNL1        0.1384
      6  N3        -3.6170    0.0800    1.1120 N.ar    1  UNL1       -0.2473
      7  C3        -2.2240    0.0570    0.8400 C.ar    1  UNL1        0.0560
      8  C4        -1.5210   -0.3630    1.9310 C.ar    1  UNL1       -0.0339
      9  C5        -0.1450   -0.4270    1.8500 C.ar    1  UNL1       -0.0180
     10  C6         0.4760   -0.0640    0.6640 C.ar    1  UNL1        0.1214
     11  O2         1.8510   -0.1370    0.6110 O.3     1  UNL1       -0.4874
     12  C7         2.5740    0.2120   -0.5570 C.3     1  UNL1        0.1147
     13  C8         4.0310    0.0200   -0.2750 C.ar    1  UNL1       -0.0077
     14  C9         4.6390   -1.2030   -0.5280 C.ar    1  UNL1       -0.0552
     15  C10        5.9770   -1.3710   -0.2650 C.ar    1  UNL1       -0.0587
     16  C11        6.7200   -0.3430    0.2450 C.ar    1  UNL1       -0.0264
     17  C12        6.0980    0.8600    0.4880 C.ar    1  UNL1        0.1238
     18  F1         6.8220    1.9030    0.9980 F       1  UNL1       -0.2055
     19  C13        4.7750    1.0560    0.2380 C.ar    1  UNL1       -0.0201
     20  C14       -0.2260    0.3620   -0.4510 C.ar    1  UNL1       -0.0148
     21  C15       -1.5770    0.4190   -0.3540 C.ar    1  UNL1       -0.0199
     22  C16       -2.3100    0.8530   -1.5850 C.3     1  UNL1       -0.0252
     23  C17       -3.2060   -0.3140   -1.9400 C.3     1  UNL1       -0.0421
     24  C18       -4.5350   -0.3220   -1.2870 C.3     1  UNL1        0.0081
     25 H          -6.1775    0.3257    2.7985 H       1  UNL1        0.1937
     26 H          -2.0092   -0.6279    2.8008 H       1  UNL1        0.0639
     27 H           0.4135   -0.7401    2.6594 H       1  UNL1        0.0655
     28 H           2.3848    1.2346   -0.8090 H       1  UNL1        0.0748
     29 H           2.2708   -0.4025   -1.3788 H       1  UNL1        0.0748
     30 H           4.0862   -1.9847   -0.9132 H       1  UNL1        0.0621
     31 H           6.4251   -2.2812   -0.4541 H       1  UNL1        0.0619
     32 H           7.7252   -0.4665    0.4433 H       1  UNL1        0.0646
     33 H           4.3360    1.9699    0.4308 H       1  UNL1        0.0650
     34 H           0.2604    0.6259   -1.3221 H       1  UNL1        0.0657
     35 H          -1.6230    1.0550   -2.3801 H       1  UNL1        0.0314
     36 H          -2.8667    1.7526   -1.4248 H       1  UNL1        0.0314
     37 H          -2.6983   -1.2146   -1.6643 H       1  UNL1        0.0272
     38 H          -3.3960   -0.2285   -2.9895 H       1  UNL1        0.0272
     39 H          -5.1258    0.4427   -1.7466 H       1  UNL1        0.0344
     40 H          -4.9056   -1.3169   -1.4200 H       1  UNL1        0.0344
@<TRIPOS>BOND
     1     1     2    2
     2     2     3   ar
     3     2     6   ar
     4     3     4   ar
     5     4     5   ar
     6     5     6   ar
     7     5    24    1
     8     6     7    1
     9     7     8   ar
    10     7    21   ar
    11     8     9   ar
    12     9    10   ar
    13    10    11    1
    14    10    20   ar
    15    11    12    1
    16    12    13    1
    17    13    14   ar
    18    13    19   ar
    19    14    15   ar
    20    15    16   ar
    21    16    17   ar
    22    17    18    1
    23    17    19   ar
    24    20    21   ar
    25    21    22    1
    26    22    23    1
    27    23    24    1
    28     3    25    1
    29     8    26    1
    30     9    27    1
    31    12    28    1
    32    12    29    1
    33    14    30    1
    34    15    31    1
    35    16    32    1
    36    19    33    1
    37    20    34    1
    38    22    35    1
    39    22    36    1
    40    23    37    1
    41    23    38    1
    42    24    39    1
    43    24    40    1
