@<TRIPOS>MOLECULE
../data/bude_mols_rdkit_confs2/molecule_5.pdb
 27 28 0 0 0
SMALL
GASTEIGER

@<TRIPOS>ATOM
      1 O          -0.6130    0.2710   -2.6570 O.2     1  UNL1       -0.2866
      2 C          -0.5520    0.0600   -1.4250 C.2     1  UNL1        0.1962
      3 C           0.7550   -0.1850   -0.8250 C.ar    1  UNL1        0.0322
      4 C           1.4190   -1.3750   -0.8630 C.ar    1  UNL1       -0.0095
      5 C           2.6610   -1.5160   -0.2710 C.ar    1  UNL1        0.1163
      6 O           3.3140   -2.7460   -0.3280 O.3     1  UNL1       -0.5071
      7 C           3.2190   -0.4210    0.3640 C.ar    1  UNL1        0.0141
      8 O           4.4600   -0.5560    0.9550 O.co2   1  UNL1       -0.8670
      9 C           2.5820    0.8160    0.4320 C.ar    1  UNL1        0.2697
     10 N           3.1870    1.9150    1.0960 N.pl3   1  UNL1        0.0791
     11 O           3.9340    1.7060    2.0760 O.2     1  UNL1        0.0414
     12 O           2.9290    3.1880    0.6340 O.co2   1  UNL1       -0.5761
     13 C           1.3520    0.8910   -0.1750 C.ar    1  UNL1        0.0260
     14 C          -1.7740    0.0700   -0.6340 C.ar    1  UNL1        0.0574
     15 C          -1.9630   -0.8010    0.4250 C.ar    1  UNL1       -0.0481
     16 C          -3.1320   -0.7830    1.1580 C.ar    1  UNL1       -0.0609
     17 C          -4.1640    0.1040    0.8640 C.ar    1  UNL1       -0.0590
     18 C          -3.9810    0.9800   -0.1960 C.ar    1  UNL1       -0.0257
     19 C          -2.8070    0.9530   -0.9210 C.ar    1  UNL1        0.1342
     20 F          -2.6490    1.8030   -1.9400 F       1  UNL1       -0.2047
     21 H           0.9887   -2.1824   -1.3404 H       1  UNL1        0.0661
     22 H           2.9114   -3.4704   -0.7652 H       1  UNL1        0.2921
     23 H           0.8456    1.7898   -0.1476 H       1  UNL1        0.0692
     24 H          -1.2193   -1.4733    0.6698 H       1  UNL1        0.0625
     25 H          -3.2440   -1.4432    1.9433 H       1  UNL1        0.0618
     26 H          -5.0359    0.1096    1.4161 H       1  UNL1        0.0618
     27 H          -4.7237    1.6527   -0.4427 H       1  UNL1        0.0646
@<TRIPOS>UNITY_ATOM_ATTR
8 1
charge -1
10 1
charge 1
12 1
charge -1
@<TRIPOS>BOND
     1     1     2    2
     2     2     3    1
     3     2    14    1
     4     3     4   ar
     5     3    13   ar
     6     4     5   ar
     7     5     6    1
     8     5     7   ar
     9     7     8    1
    10     7     9   ar
    11     9    10    1
    12     9    13   ar
    13    10    11    2
    14    10    12    1
    15    14    15   ar
    16    14    19   ar
    17    15    16   ar
    18    16    17   ar
    19    17    18   ar
    20    18    19   ar
    21    19    20    1
    22     4    21    1
    23     6    22    1
    24    13    23    1
    25    15    24    1
    26    16    25    1
    27    17    26    1
    28    18    27    1
@<TRIPOS>MOLECULE
../data/bude_mols_rdkit_confs2/molecule_5.pdb
 27 28 0 0 0
SMALL
GASTEIGER

@<TRIPOS>ATOM
      1 O           0.6940    2.5700   -0.1420 O.2     1  UNL1       -0.2866
      2 C           0.5410    1.2960   -0.0280 C.2     1  UNL1        0.1962
      3 C          -0.7960    0.7390   -0.0740 C.ar    1  UNL1        0.0322
      4 C          -1.8740    1.5920    0.1820 C.ar    1  UNL1       -0.0095
      5 C          -3.1860    1.1810    0.1810 C.ar    1  UNL1        0.1163
      6 O          -4.2470    2.0390    0.4370 O.3     1  UNL1       -0.5071
      7 C          -3.4300   -0.1700   -0.0940 C.ar    1  UNL1        0.0141
      8 O          -4.7270   -0.6380   -0.1080 O.co2   1  UNL1       -0.8670
      9 C          -2.3990   -1.0440   -0.3510 C.ar    1  UNL1        0.2697
     10 N          -2.6790   -2.4070   -0.6270 N.pl3   1  UNL1        0.0791
     11 O          -3.6550   -3.0090   -0.1250 O.2     1  UNL1        0.0414
     12 O          -1.8790   -3.1420   -1.4710 O.co2   1  UNL1       -0.5761
     13 C          -1.1010   -0.5710   -0.3360 C.ar    1  UNL1        0.0260
     14 C           1.7710    0.5520    0.1400 C.ar    1  UNL1        0.0574
     15 C           2.4510    0.7310    1.3390 C.ar    1  UNL1       -0.0481
     16 C           3.6240    0.0600    1.6310 C.ar    1  UNL1       -0.0609
     17 C           4.1630   -0.8260    0.7220 C.ar    1  UNL1       -0.0590
     18 C           3.5000   -1.0140   -0.4700 C.ar    1  UNL1       -0.0257
     19 C           2.3150   -0.3280   -0.7540 C.ar    1  UNL1        0.1342
     20 F           1.7200   -0.5270   -1.9410 F       1  UNL1       -0.2047
     21 H          -1.6739    2.5843    0.3827 H       1  UNL1        0.0661
     22 H          -4.0844    2.9432    0.6211 H       1  UNL1        0.2921
     23 H          -0.3309   -1.2301   -0.5297 H       1  UNL1        0.0692
     24 H           2.0667    1.3880    2.0359 H       1  UNL1        0.0625
     25 H           4.0982    0.2228    2.5330 H       1  UNL1        0.0618
     26 H           5.0376   -1.3332    0.9291 H       1  UNL1        0.0618
     27 H           3.8841   -1.6724   -1.1657 H       1  UNL1        0.0646
@<TRIPOS>UNITY_ATOM_ATTR
8 1
charge -1
10 1
charge 1
12 1
charge -1
@<TRIPOS>BOND
     1     1     2    2
     2     2     3    1
     3     2    14    1
     4     3     4   ar
     5     3    13   ar
     6     4     5   ar
     7     5     6    1
     8     5     7   ar
     9     7     8    1
    10     7     9   ar
    11     9    10    1
    12     9    13   ar
    13    10    11    2
    14    10    12    1
    15    14    15   ar
    16    14    19   ar
    17    15    16   ar
    18    16    17   ar
    19    17    18   ar
    20    18    19   ar
    21    19    20    1
    22     4    21    1
    23     6    22    1
    24    13    23    1
    25    15    24    1
    26    16    25    1
    27    17    26    1
    28    18    27    1
@<TRIPOS>MOLECULE
../data/bude_mols_rdkit_confs2/molecule_5.pdb
 27 28 0 0 0
SMALL
GASTEIGER

@<TRIPOS>ATOM
      1 O           0.5120   -2.3620    0.2670 O.2     1  UNL1       -0.2866
      2 C           0.4770   -1.0740    0.1590 C.2     1  UNL1        0.1962
      3 C          -0.8030   -0.4430    0.1120 C.ar    1  UNL1        0.0322
      4 C          -1.0800    0.8590    0.4420 C.ar    1  UNL1       -0.0095
      5 C          -2.3370    1.4070    0.3630 C.ar    1  UNL1        0.1163
      6 O          -2.6090    2.7450    0.7090 O.3     1  UNL1       -0.5071
      7 C          -3.4020    0.6340   -0.0690 C.ar    1  UNL1        0.0141
      8 O          -4.7020    1.1500   -0.1630 O.co2   1  UNL1       -0.8670
      9 C          -3.1670   -0.6860   -0.4120 C.ar    1  UNL1        0.2697
     10 N          -4.2090   -1.5480   -0.8720 N.pl3   1  UNL1        0.0791
     11 O          -5.1520   -1.0600   -1.5270 O.2     1  UNL1        0.0414
     12 O          -4.2050   -2.9000   -0.6240 O.co2   1  UNL1       -0.5761
     13 C          -1.9090   -1.1870   -0.3200 C.ar    1  UNL1        0.0260
     14 C           1.7800   -0.4460    0.0970 C.ar    1  UNL1        0.0574
     15 C           2.0610    0.7240   -0.5660 C.ar    1  UNL1       -0.0481
     16 C           3.3350    1.2670   -0.6120 C.ar    1  UNL1       -0.0609
     17 C           4.4060    0.6490    0.0190 C.ar    1  UNL1       -0.0590
     18 C           4.1460   -0.5230    0.6890 C.ar    1  UNL1       -0.0257
     19 C           2.8710   -1.0450    0.7200 C.ar    1  UNL1        0.1342
     20 F           2.6330   -2.2000    1.3830 F       1  UNL1       -0.2047
     21 H          -0.3044    1.4576    0.7662 H       1  UNL1        0.0661
     22 H          -1.9167    3.3021    1.0061 H       1  UNL1        0.2921
     23 H          -1.7582   -2.1733   -0.5836 H       1  UNL1        0.0692
     24 H           1.2937    1.2175   -1.0484 H       1  UNL1        0.0625
     25 H           3.4908    2.1485   -1.1256 H       1  UNL1        0.0618
     26 H           5.3557    1.0517   -0.0134 H       1  UNL1        0.0618
     27 H           4.9125   -1.0162    1.1730 H       1  UNL1        0.0646
@<TRIPOS>UNITY_ATOM_ATTR
8 1
charge -1
10 1
charge 1
12 1
charge -1
@<TRIPOS>BOND
     1     1     2    2
     2     2     3    1
     3     2    14    1
     4     3     4   ar
     5     3    13   ar
     6     4     5   ar
     7     5     6    1
     8     5     7   ar
     9     7     8    1
    10     7     9   ar
    11     9    10    1
    12     9    13   ar
    13    10    11    2
    14    10    12    1
    15    14    15   ar
    16    14    19   ar
    17    15    16   ar
    18    16    17   ar
    19    17    18   ar
    20    18    19   ar
    21    19    20    1
    22     4    21    1
    23     6    22    1
    24    13    23    1
    25    15    24    1
    26    16    25    1
    27    17    26    1
    28    18    27    1
@<TRIPOS>MOLECULE
../data/bude_mols_rdkit_confs2/molecule_5.pdb
 27 28 0 0 0
SMALL
GASTEIGER

@<TRIPOS>ATOM
      1 O           0.7230   -1.7520   -1.6660 O.2     1  UNL1       -0.2866
      2 C           0.5780   -0.8930   -0.7270 C.2     1  UNL1        0.1962
      3 C          -0.7570   -0.4520   -0.3980 C.ar    1  UNL1        0.0322
      4 C          -1.0230    0.1120    0.8150 C.ar    1  UNL1       -0.0095
      5 C          -2.3150    0.5600    1.1050 C.ar    1  UNL1        0.1163
      6 O          -2.6080    1.1340    2.3280 O.3     1  UNL1       -0.5071
      7 C          -3.2910    0.4090    0.1270 C.ar    1  UNL1        0.0141
      8 O          -4.5820    0.8510    0.3980 O.co2   1  UNL1       -0.8670
      9 C          -3.0610   -0.1560   -1.1070 C.ar    1  UNL1        0.2697
     10 N          -4.0870   -0.2820   -2.0640 N.pl3   1  UNL1        0.0791
     11 O          -3.7980   -0.3090   -3.2690 O.2     1  UNL1        0.0414
     12 O          -5.4270   -0.3810   -1.7270 O.co2   1  UNL1       -0.5761
     13 C          -1.7830   -0.5920   -1.3740 C.ar    1  UNL1        0.0260
     14 C           1.8140   -0.4580   -0.1110 C.ar    1  UNL1        0.0574
     15 C           2.6260    0.3820   -0.8980 C.ar    1  UNL1       -0.0481
     16 C           3.7980    0.8730   -0.3840 C.ar    1  UNL1       -0.0609
     17 C           4.2060    0.5550    0.9110 C.ar    1  UNL1       -0.0590
     18 C           3.4130   -0.2590    1.6600 C.ar    1  UNL1       -0.0257
     19 C           2.2090   -0.7730    1.1560 C.ar    1  UNL1        0.1342
     20 F           1.4530   -1.6100    1.9090 F       1  UNL1       -0.2047
     21 H          -0.2725    0.2078    1.5168 H       1  UNL1        0.0661
     22 H          -1.9364    1.2272    2.9747 H       1  UNL1        0.2921
     23 H          -1.5678   -1.0227   -2.2868 H       1  UNL1        0.0692
     24 H           2.3394    0.6270   -1.8586 H       1  UNL1        0.0625
     25 H           4.3884    1.4884   -0.9652 H       1  UNL1        0.0618
     26 H           5.0891    0.9284    1.2928 H       1  UNL1        0.0618
     27 H           3.7038   -0.5034    2.6196 H       1  UNL1        0.0646
@<TRIPOS>UNITY_ATOM_ATTR
8 1
charge -1
10 1
charge 1
12 1
charge -1
@<TRIPOS>BOND
     1     1     2    2
     2     2     3    1
     3     2    14    1
     4     3     4   ar
     5     3    13   ar
     6     4     5   ar
     7     5     6    1
     8     5     7   ar
     9     7     8    1
    10     7     9   ar
    11     9    10    1
    12     9    13   ar
    13    10    11    2
    14    10    12    1
    15    14    15   ar
    16    14    19   ar
    17    15    16   ar
    18    16    17   ar
    19    17    18   ar
    20    18    19   ar
    21    19    20    1
    22     4    21    1
    23     6    22    1
    24    13    23    1
    25    15    24    1
    26    16    25    1
    27    17    26    1
    28    18    27    1
@<TRIPOS>MOLECULE
../data/bude_mols_rdkit_confs2/molecule_5.pdb
 27 28 0 0 0
SMALL
GASTEIGER

@<TRIPOS>ATOM
      1 O          -0.9900    2.2870   -0.9620 O.2     1  UNL1       -0.2866
      2 C          -0.7000    1.1110   -0.5120 C.2     1  UNL1        0.1962
      3 C           0.6950    0.7490   -0.3110 C.ar    1  UNL1        0.0322
      4 C           1.6010    1.8000   -0.1350 C.ar    1  UNL1       -0.0095
      5 C           2.9460    1.6220    0.0660 C.ar    1  UNL1        0.1163
      6 O           3.8300    2.6840    0.2400 O.3     1  UNL1       -0.5071
      7 C           3.4320    0.3240    0.0950 C.ar    1  UNL1        0.0141
      8 O           4.7970    0.0550    0.2960 O.co2   1  UNL1       -0.8670
      9 C           2.5780   -0.7420   -0.0730 C.ar    1  UNL1        0.2697
     10 N           3.0970   -2.0660   -0.0440 N.pl3   1  UNL1        0.0791
     11 O           2.4100   -3.0360    0.2990 O.2     1  UNL1        0.0414
     12 O           4.4140   -2.3210   -0.4050 O.co2   1  UNL1       -0.5761
     13 C           1.2120   -0.5050   -0.2750 C.ar    1  UNL1        0.0260
     14 C          -1.8440    0.2710   -0.2510 C.ar    1  UNL1        0.0574
     15 C          -2.6860    0.6110    0.7960 C.ar    1  UNL1       -0.0481
     16 C          -3.7890   -0.1380    1.1370 C.ar    1  UNL1       -0.0609
     17 C          -4.1040   -1.2830    0.4340 C.ar    1  UNL1       -0.0590
     18 C          -3.2710   -1.6230   -0.6060 C.ar    1  UNL1       -0.0257
     19 C          -2.1520   -0.8610   -0.9530 C.ar    1  UNL1        0.1342
     20 F          -1.4010   -1.2560   -2.0210 F       1  UNL1       -0.2047
     21 H           1.2364    2.7652   -0.1577 H       1  UNL1        0.0661
     22 H           3.5127    3.5654    0.2223 H       1  UNL1        0.2921
     23 H           0.5787   -1.3101   -0.4004 H       1  UNL1        0.0692
     24 H          -2.4772    1.4611    1.3426 H       1  UNL1        0.0625
     25 H          -4.3855    0.1590    1.9250 H       1  UNL1        0.0618
     26 H          -4.9262   -1.8572    0.6774 H       1  UNL1        0.0618
     27 H          -3.4803   -2.4738   -1.1514 H       1  UNL1        0.0646
@<TRIPOS>UNITY_ATOM_ATTR
8 1
charge -1
10 1
charge 1
12 1
charge -1
@<TRIPOS>BOND
     1     1     2    2
     2     2     3    1
     3     2    14    1
     4     3     4   ar
     5     3    13   ar
     6     4     5   ar
     7     5     6    1
     8     5     7   ar
     9     7     8    1
    10     7     9   ar
    11     9    10    1
    12     9    13   ar
    13    10    11    2
    14    10    12    1
    15    14    15   ar
    16    14    19   ar
    17    15    16   ar
    18    16    17   ar
    19    17    18   ar
    20    18    19   ar
    21    19    20    1
    22     4    21    1
    23     6    22    1
    24    13    23    1
    25    15    24    1
    26    16    25    1
    27    17    26    1
    28    18    27    1
@<TRIPOS>MOLECULE
../data/bude_mols_rdkit_confs2/molecule_5.pdb
 27 28 0 0 0
SMALL
GASTEIGER

@<TRIPOS>ATOM
      1 O           0.7210    1.7800   -1.8490 O.2     1  UNL1       -0.2866
      2 C           0.6600    0.8690   -0.9770 C.2     1  UNL1        0.1962
      3 C          -0.6610    0.4190   -0.5510 C.ar    1  UNL1        0.0322
      4 C          -0.8740   -0.8640   -0.0590 C.ar    1  UNL1       -0.0095
      5 C          -2.1490   -1.1920    0.3740 C.ar    1  UNL1        0.1163
      6 O          -2.3710   -2.4590    0.8650 O.3     1  UNL1       -0.5071
      7 C          -3.2220   -0.3120    0.3400 C.ar    1  UNL1        0.0141
      8 O          -4.4960   -0.6930    0.7910 O.co2   1  UNL1       -0.8670
      9 C          -2.9510    0.9420   -0.1570 C.ar    1  UNL1        0.2697
     10 N          -3.9850    1.9130   -0.2070 N.pl3   1  UNL1        0.0791
     11 O          -5.1630    1.5680   -0.4090 O.2     1  UNL1        0.0414
     12 O          -3.6370    3.2460   -0.0240 O.co2   1  UNL1       -0.5761
     13 C          -1.6870    1.3100   -0.6000 C.ar    1  UNL1        0.0260
     14 C           1.8410    0.2530   -0.3770 C.ar    1  UNL1        0.0574
     15 C           1.8180   -0.2000    0.9480 C.ar    1  UNL1       -0.0481
     16 C           2.9190   -0.7670    1.5600 C.ar    1  UNL1       -0.0609
     17 C           4.0930   -0.9080    0.8790 C.ar    1  UNL1       -0.0590
     18 C           4.1550   -0.4720   -0.4330 C.ar    1  UNL1       -0.0257
     19 C           3.0320    0.1050   -1.0510 C.ar    1  UNL1        0.1342
     20 F           3.1000    0.5340   -2.3570 F       1  UNL1       -0.2047
     21 H          -0.1055   -1.5515   -0.0175 H       1  UNL1        0.0661
     22 H          -1.6678   -3.0772    0.9015 H       1  UNL1        0.2921
     23 H          -1.5263    2.2611   -0.9669 H       1  UNL1        0.0692
     24 H           0.9439   -0.1065    1.4886 H       1  UNL1        0.0625
     25 H           2.8532   -1.0862    2.5392 H       1  UNL1        0.0618
     26 H           4.9176   -1.3310    1.3329 H       1  UNL1        0.0618
     27 H           5.0348   -0.5715   -0.9631 H       1  UNL1        0.0646
@<TRIPOS>UNITY_ATOM_ATTR
8 1
charge -1
10 1
charge 1
12 1
charge -1
@<TRIPOS>BOND
     1     1     2    2
     2     2     3    1
     3     2    14    1
     4     3     4   ar
     5     3    13   ar
     6     4     5   ar
     7     5     6    1
     8     5     7   ar
     9     7     8    1
    10     7     9   ar
    11     9    10    1
    12     9    13   ar
    13    10    11    2
    14    10    12    1
    15    14    15   ar
    16    14    19   ar
    17    15    16   ar
    18    16    17   ar
    19    17    18   ar
    20    18    19   ar
    21    19    20    1
    22     4    21    1
    23     6    22    1
    24    13    23    1
    25    15    24    1
    26    16    25    1
    27    17    26    1
    28    18    27    1
@<TRIPOS>MOLECULE
../data/bude_mols_rdkit_confs2/molecule_5.pdb
 27 28 0 0 0
SMALL
GASTEIGER

@<TRIPOS>ATOM
      1 O          -0.8850   -1.5440    2.2270 O.2     1  UNL1       -0.2866
      2 C          -0.7310   -0.8030    1.1920 C.2     1  UNL1        0.1962
      3 C           0.6470   -0.6630    0.7160 C.ar    1  UNL1        0.0322
      4 C           1.5710   -1.6530    0.9710 C.ar    1  UNL1       -0.0095
      5 C           2.8990   -1.5480    0.5300 C.ar    1  UNL1        0.1163
      6 O           3.8080   -2.5510    0.7970 O.3     1  UNL1       -0.5071
      7 C           3.3140   -0.4350   -0.1800 C.ar    1  UNL1        0.0141
      8 O           4.6330   -0.3170   -0.6270 O.co2   1  UNL1       -0.8670
      9 C           2.4030    0.5590   -0.4410 C.ar    1  UNL1        0.2697
     10 N           2.8330    1.6980   -1.1680 N.pl3   1  UNL1        0.0791
     11 O           2.0210    2.3440   -1.8440 O.2     1  UNL1        0.0414
     12 O           4.1410    2.1030   -1.1350 O.co2   1  UNL1       -0.5761
     13 C           1.0840    0.4360    0.0080 C.ar    1  UNL1        0.0260
     14 C          -1.8650   -0.1600    0.5560 C.ar    1  UNL1        0.0574
     15 C          -2.4880   -0.7520   -0.5250 C.ar    1  UNL1       -0.0481
     16 C          -3.5720   -0.1690   -1.1580 C.ar    1  UNL1       -0.0609
     17 C          -4.0300    1.0500   -0.6740 C.ar    1  UNL1       -0.0590
     18 C          -3.3930    1.6310    0.4100 C.ar    1  UNL1       -0.0257
     19 C          -2.3040    1.0430    1.0450 C.ar    1  UNL1        0.1342
     20 F          -1.7300    1.6780    2.1130 F       1  UNL1       -0.2047
     21 H           1.2796   -2.4909    1.4984 H       1  UNL1        0.0661
     22 H           3.5405   -3.3101    1.2767 H       1  UNL1        0.2921
     23 H           0.4149    1.1942   -0.1979 H       1  UNL1        0.0692
     24 H          -2.1342   -1.6574   -0.8717 H       1  UNL1        0.0625
     25 H          -4.0259   -0.6257   -1.9645 H       1  UNL1        0.0618
     26 H          -4.8361    1.5176   -1.1173 H       1  UNL1        0.0618
     27 H          -3.7405    2.5372    0.7609 H       1  UNL1        0.0646
@<TRIPOS>UNITY_ATOM_ATTR
8 1
charge -1
10 1
charge 1
12 1
charge -1
@<TRIPOS>BOND
     1     1     2    2
     2     2     3    1
     3     2    14    1
     4     3     4   ar
     5     3    13   ar
     6     4     5   ar
     7     5     6    1
     8     5     7   ar
     9     7     8    1
    10     7     9   ar
    11     9    10    1
    12     9    13   ar
    13    10    11    2
    14    10    12    1
    15    14    15   ar
    16    14    19   ar
    17    15    16   ar
    18    16    17   ar
    19    17    18   ar
    20    18    19   ar
    21    19    20    1
    22     4    21    1
    23     6    22    1
    24    13    23    1
    25    15    24    1
    26    16    25    1
    27    17    26    1
    28    18    27    1
@<TRIPOS>MOLECULE
../data/bude_mols_rdkit_confs2/molecule_5.pdb
 27 28 0 0 0
SMALL
GASTEIGER

@<TRIPOS>ATOM
      1 O           0.7150   -2.5960    0.4400 O.2     1  UNL1       -0.2866
      2 C           0.6510   -1.3870    0.1990 C.2     1  UNL1        0.1962
      3 C          -0.6370   -0.7230    0.0020 C.ar    1  UNL1        0.0322
      4 C          -0.7360    0.5290   -0.5500 C.ar    1  UNL1       -0.0095
      5 C          -1.9820    1.1190   -0.6890 C.ar    1  UNL1        0.1163
      6 O          -2.0230    2.3810   -1.2510 O.3     1  UNL1       -0.5071
      7 C          -3.1300    0.4870   -0.2900 C.ar    1  UNL1        0.0141
      8 O          -4.3620    1.1160   -0.4480 O.co2   1  UNL1       -0.8670
      9 C          -3.0630   -0.7750    0.2680 C.ar    1  UNL1        0.2697
     10 N          -4.2730   -1.4120    0.6790 N.pl3   1  UNL1        0.0791
     11 O          -4.1560   -2.2550    1.6040 O.2     1  UNL1        0.0414
     12 O          -5.4660   -1.1200    0.0960 O.co2   1  UNL1       -0.5761
     13 C          -1.8230   -1.3420    0.3970 C.ar    1  UNL1        0.0260
     14 C           1.8720   -0.5630    0.1030 C.ar    1  UNL1        0.0574
     15 C           2.5160   -0.1860    1.2850 C.ar    1  UNL1       -0.0481
     16 C           3.6200    0.6350    1.2330 C.ar    1  UNL1       -0.0609
     17 C           4.1120    1.1020    0.0140 C.ar    1  UNL1       -0.0590
     18 C           3.4630    0.7180   -1.1320 C.ar    1  UNL1       -0.0257
     19 C           2.3610   -0.1020   -1.0910 C.ar    1  UNL1        0.1342
     20 F           1.7530   -0.4820   -2.2550 F       1  UNL1       -0.2047
     21 H           0.1123    1.0283   -0.8598 H       1  UNL1        0.0661
     22 H          -1.2292    2.8005   -1.5190 H       1  UNL1        0.2921
     23 H          -1.7624   -2.2850    0.8119 H       1  UNL1        0.0692
     24 H           2.1645   -0.5225    2.1951 H       1  UNL1        0.0625
     25 H           4.0909    0.9092    2.1094 H       1  UNL1        0.0618
     26 H           4.9393    1.7178   -0.0245 H       1  UNL1        0.0618
     27 H           3.8099    1.0522   -2.0447 H       1  UNL1        0.0646
@<TRIPOS>UNITY_ATOM_ATTR
8 1
charge -1
10 1
charge 1
12 1
charge -1
@<TRIPOS>BOND
     1     1     2    2
     2     2     3    1
     3     2    14    1
     4     3     4   ar
     5     3    13   ar
     6     4     5   ar
     7     5     6    1
     8     5     7   ar
     9     7     8    1
    10     7     9   ar
    11     9    10    1
    12     9    13   ar
    13    10    11    2
    14    10    12    1
    15    14    15   ar
    16    14    19   ar
    17    15    16   ar
    18    16    17   ar
    19    17    18   ar
    20    18    19   ar
    21    19    20    1
    22     4    21    1
    23     6    22    1
    24    13    23    1
    25    15    24    1
    26    16    25    1
    27    17    26    1
    28    18    27    1
@<TRIPOS>MOLECULE
../data/bude_mols_rdkit_confs2/molecule_5.pdb
 27 28 0 0 0
SMALL
GASTEIGER

@<TRIPOS>ATOM
      1 O          -0.7530   -0.5570    2.5590 O.2     1  UNL1       -0.2866
      2 C          -0.6110   -0.2720    1.3580 C.2     1  UNL1        0.1962
      3 C           0.7190   -0.4420    0.7680 C.ar    1  UNL1        0.0322
      4 C           1.5790   -1.3950    1.2820 C.ar    1  UNL1       -0.0095
      5 C           2.8360   -1.5880    0.7780 C.ar    1  UNL1        0.1163
      6 O           3.6980   -2.5680    1.3170 O.3     1  UNL1       -0.5071
      7 C           3.2740   -0.8140   -0.2770 C.ar    1  UNL1        0.0141
      8 O           4.5300   -1.0040   -0.7850 O.co2   1  UNL1       -0.8670
      9 C           2.4250    0.1400   -0.7980 C.ar    1  UNL1        0.2697
     10 N           2.8550    0.9490   -1.8810 N.pl3   1  UNL1        0.0791
     11 O           3.6460    0.4790   -2.7160 O.2     1  UNL1        0.0414
     12 O           2.4220    2.2330   -2.0310 O.co2   1  UNL1       -0.5761
     13 C           1.1590    0.3290   -0.2840 C.ar    1  UNL1        0.0260
     14 C          -1.7230    0.2160    0.5550 C.ar    1  UNL1        0.0574
     15 C          -1.8440    0.0040   -0.8080 C.ar    1  UNL1       -0.0481
     16 C          -2.9130    0.4700   -1.5350 C.ar    1  UNL1       -0.0609
     17 C          -3.8940    1.1730   -0.8680 C.ar    1  UNL1       -0.0590
     18 C          -3.8390    1.4200    0.4860 C.ar    1  UNL1       -0.0257
     19 C          -2.7470    0.9320    1.1660 C.ar    1  UNL1        0.1342
     20 F          -2.6300    1.1420    2.5080 F       1  UNL1       -0.2047
     21 H           1.2623   -1.9795    2.0713 H       1  UNL1        0.0661
     22 H           3.4125   -3.1001    2.0335 H       1  UNL1        0.2921
     23 H           0.5408    1.0495   -0.6887 H       1  UNL1        0.0692
     24 H          -1.1036   -0.5238   -1.2962 H       1  UNL1        0.0625
     25 H          -2.9797    0.2988   -2.5505 H       1  UNL1        0.0618
     26 H          -4.7011    1.5280   -1.4043 H       1  UNL1        0.0618
     27 H          -4.5833    1.9473    0.9686 H       1  UNL1        0.0646
@<TRIPOS>UNITY_ATOM_ATTR
8 1
charge -1
10 1
charge 1
12 1
charge -1
@<TRIPOS>BOND
     1     1     2    2
     2     2     3    1
     3     2    14    1
     4     3     4   ar
     5     3    13   ar
     6     4     5   ar
     7     5     6    1
     8     5     7   ar
     9     7     8    1
    10     7     9   ar
    11     9    10    1
    12     9    13   ar
    13    10    11    2
    14    10    12    1
    15    14    15   ar
    16    14    19   ar
    17    15    16   ar
    18    16    17   ar
    19    17    18   ar
    20    18    19   ar
    21    19    20    1
    22     4    21    1
    23     6    22    1
    24    13    23    1
    25    15    24    1
    26    16    25    1
    27    17    26    1
    28    18    27    1
@<TRIPOS>MOLECULE
../data/bude_mols_rdkit_confs2/molecule_5.pdb
 27 28 0 0 0
SMALL
GASTEIGER

@<TRIPOS>ATOM
      1 O           0.4100   -2.5290   -0.7930 O.2     1  UNL1       -0.2866
      2 C           0.4900   -1.2920   -0.4750 C.2     1  UNL1        0.1962
      3 C          -0.7340   -0.4930   -0.4550 C.ar    1  UNL1        0.0322
      4 C          -0.7230    0.8850   -0.5170 C.ar    1  UNL1       -0.0095
      5 C          -1.8930    1.5960   -0.4970 C.ar    1  UNL1        0.1163
      6 O          -1.8700    2.9840   -0.5590 O.3     1  UNL1       -0.5071
      7 C          -3.1130    0.9380   -0.4120 C.ar    1  UNL1        0.0141
      8 O          -4.2840    1.6930   -0.3940 O.co2   1  UNL1       -0.8670
      9 C          -3.1700   -0.4520   -0.3470 C.ar    1  UNL1        0.2697
     10 N          -4.4400   -1.0730   -0.2590 N.pl3   1  UNL1        0.0791
     11 O          -5.4060   -0.5360   -0.8170 O.2     1  UNL1        0.0414
     12 O          -4.6200   -2.2470    0.4170 O.co2   1  UNL1       -0.5761
     13 C          -1.9710   -1.1230   -0.3710 C.ar    1  UNL1        0.0260
     14 C           1.7920   -0.7270   -0.1470 C.ar    1  UNL1        0.0574
     15 C           2.8210   -0.8070   -1.0750 C.ar    1  UNL1       -0.0481
     16 C           4.0770   -0.2760   -0.7900 C.ar    1  UNL1       -0.0609
     17 C           4.3300    0.3460    0.4310 C.ar    1  UNL1       -0.0590
     18 C           3.3130    0.4280    1.3560 C.ar    1  UNL1       -0.0257
     19 C           2.0560   -0.1070    1.0600 C.ar    1  UNL1        0.1342
     20 F           1.0470   -0.0280    1.9780 F       1  UNL1       -0.2047
     21 H           0.1773    1.3857   -0.5792 H       1  UNL1        0.0661
     22 H          -1.0517    3.4369   -0.6165 H       1  UNL1        0.2921
     23 H          -1.9896   -2.1538   -0.3240 H       1  UNL1        0.0692
     24 H           2.6540   -1.2643   -1.9850 H       1  UNL1        0.0625
     25 H           4.8300   -0.3442   -1.4924 H       1  UNL1        0.0618
     26 H           5.2620    0.7378    0.6382 H       1  UNL1        0.0618
     27 H           3.4788    0.8840    2.2668 H       1  UNL1        0.0646
@<TRIPOS>UNITY_ATOM_ATTR
8 1
charge -1
10 1
charge 1
12 1
charge -1
@<TRIPOS>BOND
     1     1     2    2
     2     2     3    1
     3     2    14    1
     4     3     4   ar
     5     3    13   ar
     6     4     5   ar
     7     5     6    1
     8     5     7   ar
     9     7     8    1
    10     7     9   ar
    11     9    10    1
    12     9    13   ar
    13    10    11    2
    14    10    12    1
    15    14    15   ar
    16    14    19   ar
    17    15    16   ar
    18    16    17   ar
    19    17    18   ar
    20    18    19   ar
    21    19    20    1
    22     4    21    1
    23     6    22    1
    24    13    23    1
    25    15    24    1
    26    16    25    1
    27    17    26    1
    28    18    27    1
@<TRIPOS>MOLECULE
../data/bude_mols_rdkit_confs2/molecule_5.pdb
 27 28 0 0 0
SMALL
GASTEIGER

@<TRIPOS>ATOM
      1 O          -0.4520    2.5070   -0.7580 O.2     1  UNL1       -0.2866
      2 C          -0.5390    1.3080   -0.3970 C.2     1  UNL1        0.1962
      3 C           0.6900    0.5460   -0.2470 C.ar    1  UNL1        0.0322
      4 C           0.7620   -0.8360   -0.3230 C.ar    1  UNL1       -0.0095
      5 C           1.9470   -1.5230   -0.1590 C.ar    1  UNL1        0.1163
      6 O           1.9580   -2.9090   -0.2460 O.3     1  UNL1       -0.5071
      7 C           3.1250   -0.8240    0.0940 C.ar    1  UNL1        0.0141
      8 O           4.2830   -1.5640    0.2500 O.co2   1  UNL1       -0.8670
      9 C           3.0960    0.5540    0.1770 C.ar    1  UNL1        0.2697
     10 N           4.3100    1.2730    0.4380 N.pl3   1  UNL1        0.0791
     11 O           4.5010    2.4440    0.0610 O.2     1  UNL1        0.0414
     12 O           5.3200    0.6580    1.1340 O.co2   1  UNL1       -0.5761
     13 C           1.9040    1.1980    0.0090 C.ar    1  UNL1        0.0260
     14 C          -1.8080    0.6730   -0.1320 C.ar    1  UNL1        0.0574
     15 C          -1.9020   -0.2710    0.8640 C.ar    1  UNL1       -0.0481
     16 C          -3.1210   -0.8890    1.1600 C.ar    1  UNL1       -0.0609
     17 C          -4.2590   -0.5530    0.4470 C.ar    1  UNL1       -0.0590
     18 C          -4.1320    0.3890   -0.5360 C.ar    1  UNL1       -0.0257
     19 C          -2.9530    1.0210   -0.8590 C.ar    1  UNL1        0.1342
     20 F          -2.8790    1.9470   -1.8410 F       1  UNL1       -0.2047
     21 H          -0.1013   -1.3700   -0.5088 H       1  UNL1        0.0661
     22 H           1.1626   -3.3741   -0.4164 H       1  UNL1        0.2921
     23 H           1.8964    2.2279    0.0745 H       1  UNL1        0.0692
     24 H          -1.0592   -0.5274    1.4016 H       1  UNL1        0.0625
     25 H          -3.1722   -1.5958    1.9102 H       1  UNL1        0.0618
     26 H          -5.1685   -0.9965    0.6496 H       1  UNL1        0.0618
     27 H          -4.9768    0.6430   -1.0715 H       1  UNL1        0.0646
@<TRIPOS>UNITY_ATOM_ATTR
8 1
charge -1
10 1
charge 1
12 1
charge -1
@<TRIPOS>BOND
     1     1     2    2
     2     2     3    1
     3     2    14    1
     4     3     4   ar
     5     3    13   ar
     6     4     5   ar
     7     5     6    1
     8     5     7   ar
     9     7     8    1
    10     7     9   ar
    11     9    10    1
    12     9    13   ar
    13    10    11    2
    14    10    12    1
    15    14    15   ar
    16    14    19   ar
    17    15    16   ar
    18    16    17   ar
    19    17    18   ar
    20    18    19   ar
    21    19    20    1
    22     4    21    1
    23     6    22    1
    24    13    23    1
    25    15    24    1
    26    16    25    1
    27    17    26    1
    28    18    27    1
@<TRIPOS>MOLECULE
../data/bude_mols_rdkit_confs2/molecule_5.pdb
 27 28 0 0 0
SMALL
GASTEIGER

@<TRIPOS>ATOM
      1 O           0.0170    2.7190   -0.3440 O.2     1  UNL1       -0.2866
      2 C           0.2330    1.4640   -0.2340 C.2     1  UNL1        0.1962
      3 C          -0.9320    0.6530    0.0830 C.ar    1  UNL1        0.0322
      4 C          -2.0850    1.2350    0.5540 C.ar    1  UNL1       -0.0095
      5 C          -3.2300    0.5480    0.8970 C.ar    1  UNL1        0.1163
      6 O          -4.3860    1.1490    1.3710 O.3     1  UNL1       -0.5071
      7 C          -3.2050   -0.8430    0.7520 C.ar    1  UNL1        0.0141
      8 O          -4.3680   -1.5520    1.0980 O.co2   1  UNL1       -0.8670
      9 C          -2.0770   -1.4630    0.2870 C.ar    1  UNL1        0.2697
     10 N          -2.0510   -2.8680    0.1400 N.pl3   1  UNL1        0.0791
     11 O          -1.2870   -3.3430   -0.7230 O.2     1  UNL1        0.0414
     12 O          -2.8110   -3.7340    0.8850 O.co2   1  UNL1       -0.5761
     13 C          -0.9490   -0.7180   -0.0440 C.ar    1  UNL1        0.0260
     14 C           1.5760    0.9300   -0.4200 C.ar    1  UNL1        0.0574
     15 C           2.5490    1.2010    0.5290 C.ar    1  UNL1       -0.0481
     16 C           3.8300    0.6890    0.4070 C.ar    1  UNL1       -0.0609
     17 C           4.1660   -0.1030   -0.6650 C.ar    1  UNL1       -0.0590
     18 C           3.2160   -0.3760   -1.6070 C.ar    1  UNL1       -0.0257
     19 C           1.9230    0.1380   -1.4880 C.ar    1  UNL1        0.1342
     20 F           0.9940   -0.1210   -2.4480 F       1  UNL1       -0.2047
     21 H          -2.0941    2.2617    0.6585 H       1  UNL1        0.0661
     22 H          -4.4216    2.0796    1.4748 H       1  UNL1        0.2921
     23 H          -0.1074   -1.2034   -0.3920 H       1  UNL1        0.0692
     24 H           2.3150    1.7944    1.3403 H       1  UNL1        0.0625
     25 H           4.5379    0.9038    1.1266 H       1  UNL1        0.0618
     26 H           5.1204   -0.4849   -0.7564 H       1  UNL1        0.0618
     27 H           3.4564   -0.9692   -2.4165 H       1  UNL1        0.0646
@<TRIPOS>UNITY_ATOM_ATTR
8 1
charge -1
10 1
charge 1
12 1
charge -1
@<TRIPOS>BOND
     1     1     2    2
     2     2     3    1
     3     2    14    1
     4     3     4   ar
     5     3    13   ar
     6     4     5   ar
     7     5     6    1
     8     5     7   ar
     9     7     8    1
    10     7     9   ar
    11     9    10    1
    12     9    13   ar
    13    10    11    2
    14    10    12    1
    15    14    15   ar
    16    14    19   ar
    17    15    16   ar
    18    16    17   ar
    19    17    18   ar
    20    18    19   ar
    21    19    20    1
    22     4    21    1
    23     6    22    1
    24    13    23    1
    25    15    24    1
    26    16    25    1
    27    17    26    1
    28    18    27    1
@<TRIPOS>MOLECULE
../data/bude_mols_rdkit_confs2/molecule_5.pdb
 27 28 0 0 0
SMALL
GASTEIGER

@<TRIPOS>ATOM
      1 O          -0.4970   -1.2650   -2.0650 O.2     1  UNL1       -0.2866
      2 C          -0.5160   -0.5740   -0.9820 C.2     1  UNL1        0.1962
      3 C           0.7890   -0.1320   -0.5010 C.ar    1  UNL1        0.0322
      4 C           1.0090    0.9740    0.2800 C.ar    1  UNL1       -0.0095
      5 C           2.2800    1.3200    0.7330 C.ar    1  UNL1        0.1163
      6 O           2.4850    2.4470    1.5270 O.3     1  UNL1       -0.5071
      7 C           3.3850    0.5490    0.4080 C.ar    1  UNL1        0.0141
      8 O           4.6480    0.9170    0.8770 O.co2   1  UNL1       -0.8670
      9 C           3.1900   -0.5660   -0.3760 C.ar    1  UNL1        0.2697
     10 N           4.3180   -1.3500   -0.7170 N.pl3   1  UNL1        0.0791
     11 O           4.2760   -1.9900   -1.7920 O.2     1  UNL1        0.0414
     12 O           5.3910   -1.3970    0.0870 O.co2   1  UNL1       -0.5761
     13 C           1.9290   -0.8940   -0.8160 C.ar    1  UNL1        0.0260
     14 C          -1.7870   -0.3220   -0.3790 C.ar    1  UNL1        0.0574
     15 C          -1.9770   -0.0700    0.9360 C.ar    1  UNL1       -0.0481
     16 C          -3.2370    0.1440    1.4990 C.ar    1  UNL1       -0.0609
     17 C          -4.3590    0.0990    0.6840 C.ar    1  UNL1       -0.0590
     18 C          -4.2030   -0.1530   -0.6510 C.ar    1  UNL1       -0.0257
     19 C          -2.9470   -0.3580   -1.1710 C.ar    1  UNL1        0.1342
     20 F          -2.8230   -0.6010   -2.4880 F       1  UNL1       -0.2047
     21 H           0.2070    1.5690    0.5404 H       1  UNL1        0.0661
     22 H           1.7598    2.9903    1.7654 H       1  UNL1        0.2921
     23 H           1.8140   -1.7353   -1.4025 H       1  UNL1        0.0692
     24 H          -1.1508   -0.0341    1.5534 H       1  UNL1        0.0625
     25 H          -3.3324    0.3333    2.5090 H       1  UNL1        0.0618
     26 H          -5.2993    0.2537    1.0802 H       1  UNL1        0.0618
     27 H          -5.0289   -0.1893   -1.2687 H       1  UNL1        0.0646
@<TRIPOS>UNITY_ATOM_ATTR
8 1
charge -1
10 1
charge 1
12 1
charge -1
@<TRIPOS>BOND
     1     1     2    2
     2     2     3    1
     3     2    14    1
     4     3     4   ar
     5     3    13   ar
     6     4     5   ar
     7     5     6    1
     8     5     7   ar
     9     7     8    1
    10     7     9   ar
    11     9    10    1
    12     9    13   ar
    13    10    11    2
    14    10    12    1
    15    14    15   ar
    16    14    19   ar
    17    15    16   ar
    18    16    17   ar
    19    17    18   ar
    20    18    19   ar
    21    19    20    1
    22     4    21    1
    23     6    22    1
    24    13    23    1
    25    15    24    1
    26    16    25    1
    27    17    26    1
    28    18    27    1
@<TRIPOS>MOLECULE
../data/bude_mols_rdkit_confs2/molecule_5.pdb
 27 28 0 0 0
SMALL
GASTEIGER

@<TRIPOS>ATOM
      1 O          -0.3920    1.5970    1.8390 O.2     1  UNL1       -0.2866
      2 C          -0.4580    0.7250    0.8980 C.2     1  UNL1        0.1962
      3 C           0.7470    0.2470    0.2970 C.ar    1  UNL1        0.0322
      4 C           0.8600   -0.9000   -0.4140 C.ar    1  UNL1       -0.0095
      5 C           2.0420   -1.3330   -1.0100 C.ar    1  UNL1        0.1163
      6 O           2.0780   -2.5100   -1.7200 O.3     1  UNL1       -0.5071
      7 C           3.1830   -0.5310   -0.8620 C.ar    1  UNL1        0.0141
      8 O           4.3770   -0.9290   -1.4440 O.co2   1  UNL1       -0.8670
      9 C           3.1070    0.6490   -0.1390 C.ar    1  UNL1        0.2697
     10 N           4.2630    1.4800    0.0130 N.pl3   1  UNL1        0.0791
     11 O           4.0520    2.7100    0.1720 O.2     1  UNL1        0.0414
     12 O           5.5260    0.9540   -0.0210 O.co2   1  UNL1       -0.5761
     13 C           1.8980    1.0260    0.4320 C.ar    1  UNL1        0.0260
     14 C          -1.7920    0.3140    0.5310 C.ar    1  UNL1        0.0574
     15 C          -2.2020   -0.9830    0.7150 C.ar    1  UNL1       -0.0481
     16 C          -3.5110   -1.3380    0.3580 C.ar    1  UNL1       -0.0609
     17 C          -4.3660   -0.3900   -0.1700 C.ar    1  UNL1       -0.0590
     18 C          -3.9540    0.9190   -0.3530 C.ar    1  UNL1       -0.0257
     19 C          -2.6560    1.2690    0.0020 C.ar    1  UNL1        0.1342
     20 F          -2.1720    2.5240   -0.1410 F       1  UNL1       -0.2047
     21 H           0.0193   -1.4890   -0.5207 H       1  UNL1        0.0661
     22 H           1.3029   -3.0295   -1.8055 H       1  UNL1        0.2921
     23 H           1.8492    1.9052    0.9703 H       1  UNL1        0.0692
     24 H          -1.5574   -1.6856    1.1097 H       1  UNL1        0.0625
     25 H          -3.8359   -2.3086    0.4899 H       1  UNL1        0.0618
     26 H          -5.3265   -0.6617   -0.4320 H       1  UNL1        0.0618
     27 H          -4.5988    1.6225   -0.7459 H       1  UNL1        0.0646
@<TRIPOS>UNITY_ATOM_ATTR
8 1
charge -1
10 1
charge 1
12 1
charge -1
@<TRIPOS>BOND
     1     1     2    2
     2     2     3    1
     3     2    14    1
     4     3     4   ar
     5     3    13   ar
     6     4     5   ar
     7     5     6    1
     8     5     7   ar
     9     7     8    1
    10     7     9   ar
    11     9    10    1
    12     9    13   ar
    13    10    11    2
    14    10    12    1
    15    14    15   ar
    16    14    19   ar
    17    15    16   ar
    18    16    17   ar
    19    17    18   ar
    20    18    19   ar
    21    19    20    1
    22     4    21    1
    23     6    22    1
    24    13    23    1
    25    15    24    1
    26    16    25    1
    27    17    26    1
    28    18    27    1
@<TRIPOS>MOLECULE
../data/bude_mols_rdkit_confs2/molecule_5.pdb
 27 28 0 0 0
SMALL
GASTEIGER

@<TRIPOS>ATOM
      1 O          -0.6840   -2.5390   -0.5790 O.2     1  UNL1       -0.2866
      2 C          -0.5310   -1.3000   -0.3030 C.2     1  UNL1        0.1962
      3 C           0.7950   -0.7360   -0.2910 C.ar    1  UNL1        0.0322
      4 C           1.7680   -1.3040   -1.0890 C.ar    1  UNL1       -0.0095
      5 C           3.0520   -0.8230   -1.1210 C.ar    1  UNL1        0.1163
      6 O           3.9730   -1.4540   -1.9530 O.3     1  UNL1       -0.5071
      7 C           3.3910    0.2540   -0.3420 C.ar    1  UNL1        0.0141
      8 O           4.6960    0.7330   -0.3840 O.co2   1  UNL1       -0.8670
      9 C           2.4470    0.8480    0.4670 C.ar    1  UNL1        0.2697
     10 N           2.8010    1.9680    1.2750 N.pl3   1  UNL1        0.0791
     11 O           2.1530    2.1430    2.3130 O.2     1  UNL1        0.0414
     12 O           3.8230    2.7610    0.8460 O.co2   1  UNL1       -0.5761
     13 C           1.1530    0.3420    0.4830 C.ar    1  UNL1        0.0260
     14 C          -1.7390   -0.5430   -0.0150 C.ar    1  UNL1        0.0574
     15 C          -1.8700    0.8140   -0.2210 C.ar    1  UNL1       -0.0481
     16 C          -3.0190    1.5300    0.0450 C.ar    1  UNL1       -0.0609
     17 C          -4.1000    0.8400    0.5470 C.ar    1  UNL1       -0.0590
     18 C          -4.0270   -0.5150    0.7710 C.ar    1  UNL1       -0.0257
     19 C          -2.8660   -1.1990    0.4960 C.ar    1  UNL1        0.1342
     20 F          -2.7530   -2.5330    0.7020 F       1  UNL1       -0.2047
     21 H           1.5219   -2.1143   -1.6788 H       1  UNL1        0.0661
     22 H           3.7092   -2.1877   -2.4727 H       1  UNL1        0.2921
     23 H           0.4452    0.7853    1.0893 H       1  UNL1        0.0692
     24 H          -1.0574    1.3265   -0.5979 H       1  UNL1        0.0625
     25 H          -3.0667    2.5466   -0.1261 H       1  UNL1        0.0618
     26 H          -4.9748    1.3454    0.7575 H       1  UNL1        0.0618
     27 H          -4.8453   -1.0196    1.1463 H       1  UNL1        0.0646
@<TRIPOS>UNITY_ATOM_ATTR
8 1
charge -1
10 1
charge 1
12 1
charge -1
@<TRIPOS>BOND
     1     1     2    2
     2     2     3    1
     3     2    14    1
     4     3     4   ar
     5     3    13   ar
     6     4     5   ar
     7     5     6    1
     8     5     7   ar
     9     7     8    1
    10     7     9   ar
    11     9    10    1
    12     9    13   ar
    13    10    11    2
    14    10    12    1
    15    14    15   ar
    16    14    19   ar
    17    15    16   ar
    18    16    17   ar
    19    17    18   ar
    20    18    19   ar
    21    19    20    1
    22     4    21    1
    23     6    22    1
    24    13    23    1
    25    15    24    1
    26    16    25    1
    27    17    26    1
    28    18    27    1
@<TRIPOS>MOLECULE
../data/bude_mols_rdkit_confs2/molecule_5.pdb
 27 28 0 0 0
SMALL
GASTEIGER

@<TRIPOS>ATOM
      1 O          -0.9580    1.6880    1.7280 O.2     1  UNL1       -0.2866
      2 C          -0.6800    0.7970    0.8440 C.2     1  UNL1        0.1962
      3 C           0.7080    0.6940    0.4120 C.ar    1  UNL1        0.0322
      4 C           1.5640    1.7860    0.6040 C.ar    1  UNL1       -0.0095
      5 C           2.8810    1.7560    0.1980 C.ar    1  UNL1        0.1163
      6 O           3.7250    2.8610    0.3970 O.3     1  UNL1       -0.5071
      7 C           3.4270    0.6430   -0.4200 C.ar    1  UNL1        0.0141
      8 O           4.7600    0.6190   -0.8260 O.co2   1  UNL1       -0.8670
      9 C           2.5920   -0.4300   -0.6100 C.ar    1  UNL1        0.2697
     10 N           3.1220   -1.6070   -1.2440 N.pl3   1  UNL1        0.0791
     11 O           4.0100   -1.5370   -2.0890 O.2     1  UNL1        0.0414
     12 O           2.5570   -2.7990   -0.8220 O.co2   1  UNL1       -0.5761
     13 C           1.2510   -0.4000   -0.1980 C.ar    1  UNL1        0.0260
     14 C          -1.7820    0.0020    0.3800 C.ar    1  UNL1        0.0574
     15 C          -1.8690   -1.3620    0.5160 C.ar    1  UNL1       -0.0481
     16 C          -2.9660   -2.0830    0.0720 C.ar    1  UNL1       -0.0609
     17 C          -4.0350   -1.4770   -0.5330 C.ar    1  UNL1       -0.0590
     18 C          -3.9720   -0.0990   -0.6810 C.ar    1  UNL1       -0.0257
     19 C          -2.8830    0.6130   -0.2390 C.ar    1  UNL1        0.1342
     20 F          -2.8420    1.9530   -0.3940 F       1  UNL1       -0.2047
     21 H           1.1989    2.6358    1.0617 H       1  UNL1        0.0661
     22 H           3.3951    3.6339    0.8114 H       1  UNL1        0.2921
     23 H           0.6581   -1.2288   -0.3608 H       1  UNL1        0.0692
     24 H          -1.0896   -1.8680    0.9649 H       1  UNL1        0.0625
     25 H          -2.9778   -3.1068    0.2010 H       1  UNL1        0.0618
     26 H          -4.8485   -2.0195   -0.8630 H       1  UNL1        0.0618
     27 H          -4.7559    0.3995   -1.1304 H       1  UNL1        0.0646
@<TRIPOS>UNITY_ATOM_ATTR
8 1
charge -1
10 1
charge 1
12 1
charge -1
@<TRIPOS>BOND
     1     1     2    2
     2     2     3    1
     3     2    14    1
     4     3     4   ar
     5     3    13   ar
     6     4     5   ar
     7     5     6    1
     8     5     7   ar
     9     7     8    1
    10     7     9   ar
    11     9    10    1
    12     9    13   ar
    13    10    11    2
    14    10    12    1
    15    14    15   ar
    16    14    19   ar
    17    15    16   ar
    18    16    17   ar
    19    17    18   ar
    20    18    19   ar
    21    19    20    1
    22     4    21    1
    23     6    22    1
    24    13    23    1
    25    15    24    1
    26    16    25    1
    27    17    26    1
    28    18    27    1
@<TRIPOS>MOLECULE
../data/bude_mols_rdkit_confs2/molecule_5.pdb
 27 28 0 0 0
SMALL
GASTEIGER

@<TRIPOS>ATOM
      1 O          -0.7380   -1.5450    1.6140 O.2     1  UNL1       -0.2866
      2 C          -0.5820   -0.7490    0.6040 C.2     1  UNL1        0.1962
      3 C           0.7740   -0.3750    0.3010 C.ar    1  UNL1        0.0322
      4 C           1.2790    0.0330   -0.9090 C.ar    1  UNL1       -0.0095
      5 C           2.6180    0.4090   -1.0800 C.ar    1  UNL1        0.1163
      6 O           3.0520    0.8050   -2.3250 O.3     1  UNL1       -0.5071
      7 C           3.4340    0.3710   -0.0100 C.ar    1  UNL1        0.0141
      8 O           4.7930    0.7350   -0.0770 O.co2   1  UNL1       -0.8670
      9 C           3.0210   -0.0270    1.2520 C.ar    1  UNL1        0.2697
     10 N           3.8990   -0.0410    2.3750 N.pl3   1  UNL1        0.0791
     11 O           3.6300   -0.8460    3.2930 O.2     1  UNL1        0.0414
     12 O           4.9750    0.8200    2.4060 O.co2   1  UNL1       -0.5761
     13 C           1.6880   -0.3900    1.3650 C.ar    1  UNL1        0.0260
     14 C          -1.8120   -0.3810   -0.0270 C.ar    1  UNL1        0.0574
     15 C          -2.0720   -0.3150   -1.3570 C.ar    1  UNL1       -0.0481
     16 C          -3.3320    0.0590   -1.8670 C.ar    1  UNL1       -0.0609
     17 C          -4.3610    0.3740   -1.0320 C.ar    1  UNL1       -0.0590
     18 C          -4.1170    0.3110    0.3460 C.ar    1  UNL1       -0.0257
     19 C          -2.8890   -0.0520    0.8340 C.ar    1  UNL1        0.1342
     20 F          -2.6440   -0.1170    2.1710 F       1  UNL1       -0.2047
     21 H           0.6475    0.0639   -1.7246 H       1  UNL1        0.0661
     22 H           2.4548    0.8188   -3.0469 H       1  UNL1        0.2921
     23 H           1.3461   -0.6905    2.2912 H       1  UNL1        0.0692
     24 H          -1.3176   -0.5478   -2.0216 H       1  UNL1        0.0625
     25 H          -3.4769    0.0946   -2.8882 H       1  UNL1        0.0618
     26 H          -5.2851    0.6486   -1.4004 H       1  UNL1        0.0618
     27 H          -4.8761    0.5422    1.0058 H       1  UNL1        0.0646
@<TRIPOS>UNITY_ATOM_ATTR
8 1
charge -1
10 1
charge 1
12 1
charge -1
@<TRIPOS>BOND
     1     1     2    2
     2     2     3    1
     3     2    14    1
     4     3     4   ar
     5     3    13   ar
     6     4     5   ar
     7     5     6    1
     8     5     7   ar
     9     7     8    1
    10     7     9   ar
    11     9    10    1
    12     9    13   ar
    13    10    11    2
    14    10    12    1
    15    14    15   ar
    16    14    19   ar
    17    15    16   ar
    18    16    17   ar
    19    17    18   ar
    20    18    19   ar
    21    19    20    1
    22     4    21    1
    23     6    22    1
    24    13    23    1
    25    15    24    1
    26    16    25    1
    27    17    26    1
    28    18    27    1
@<TRIPOS>MOLECULE
../data/bude_mols_rdkit_confs2/molecule_5.pdb
 27 28 0 0 0
SMALL
GASTEIGER

@<TRIPOS>ATOM
      1 O          -0.7100   -1.2960    1.7630 O.2     1  UNL1       -0.2866
      2 C          -0.5910   -0.5770    0.6510 C.2     1  UNL1        0.1962
      3 C           0.7790   -0.3450    0.2670 C.ar    1  UNL1        0.0322
      4 C           1.2810   -0.1950   -0.9850 C.ar    1  UNL1       -0.0095
      5 C           2.6430    0.0870   -1.2210 C.ar    1  UNL1        0.1163
      6 O           3.0810    0.2280   -2.5530 O.3     1  UNL1       -0.5071
      7 C           3.5420    0.2250   -0.2030 C.ar    1  UNL1        0.0141
      8 O           4.8840    0.5020   -0.4080 O.co2   1  UNL1       -0.8670
      9 C           3.0470    0.0710    1.0960 C.ar    1  UNL1        0.2697
     10 N           3.9970    0.2240    2.1530 N.pl3   1  UNL1        0.0791
     11 O           4.9610    1.0150    1.9820 O.2     1  UNL1        0.0414
     12 O           3.9300   -0.4370    3.3490 O.co2   1  UNL1       -0.5761
     13 C           1.7310   -0.1990    1.3030 C.ar    1  UNL1        0.0260
     14 C          -1.8370   -0.1810    0.0810 C.ar    1  UNL1        0.0574
     15 C          -2.1180    0.0990   -1.2240 C.ar    1  UNL1       -0.0481
     16 C          -3.3980    0.4920   -1.6600 C.ar    1  UNL1       -0.0609
     17 C          -4.4280    0.6100   -0.7800 C.ar    1  UNL1       -0.0590
     18 C          -4.1850    0.3360    0.5440 C.ar    1  UNL1       -0.0257
     19 C          -2.9310   -0.0460    0.9560 C.ar    1  UNL1        0.1342
     20 F          -2.7460   -0.3010    2.2580 F       1  UNL1       -0.2047
     21 H           0.6447   -0.2905   -1.7919 H       1  UNL1        0.0661
     22 H           2.4718    0.1351   -3.2588 H       1  UNL1        0.2921
     23 H           1.4061   -0.3040    2.2769 H       1  UNL1        0.0692
     24 H          -1.3610    0.0195   -1.9209 H       1  UNL1        0.0625
     25 H          -3.5564    0.6930   -2.6598 H       1  UNL1        0.0618
     26 H          -5.3667    0.8976   -1.0982 H       1  UNL1        0.0618
     27 H          -4.9487    0.4175    1.2333 H       1  UNL1        0.0646
@<TRIPOS>UNITY_ATOM_ATTR
8 1
charge -1
10 1
charge 1
12 1
charge -1
@<TRIPOS>BOND
     1     1     2    2
     2     2     3    1
     3     2    14    1
     4     3     4   ar
     5     3    13   ar
     6     4     5   ar
     7     5     6    1
     8     5     7   ar
     9     7     8    1
    10     7     9   ar
    11     9    10    1
    12     9    13   ar
    13    10    11    2
    14    10    12    1
    15    14    15   ar
    16    14    19   ar
    17    15    16   ar
    18    16    17   ar
    19    17    18   ar
    20    18    19   ar
    21    19    20    1
    22     4    21    1
    23     6    22    1
    24    13    23    1
    25    15    24    1
    26    16    25    1
    27    17    26    1
    28    18    27    1
@<TRIPOS>MOLECULE
../data/bude_mols_rdkit_confs2/molecule_5.pdb
 27 28 0 0 0
SMALL
GASTEIGER

@<TRIPOS>ATOM
      1 O           0.4800   -2.6780   -0.7810 O.2     1  UNL1       -0.2866
      2 C           0.4650   -1.4730   -0.4180 C.2     1  UNL1        0.1962
      3 C          -0.8350   -0.8410   -0.1980 C.ar    1  UNL1        0.0322
      4 C          -1.9650   -1.5510    0.1480 C.ar    1  UNL1       -0.0095
      5 C          -3.1930   -0.9650    0.3520 C.ar    1  UNL1        0.1163
      6 O          -4.3400   -1.6870    0.7030 O.3     1  UNL1       -0.5071
      7 C          -3.3380    0.4020    0.2100 C.ar    1  UNL1        0.0141
      8 O          -4.5450    1.0620    0.3990 O.co2   1  UNL1       -0.8670
      9 C          -2.2160    1.1260   -0.1360 C.ar    1  UNL1        0.2697
     10 N          -2.3580    2.5330   -0.2850 N.pl3   1  UNL1        0.0791
     11 O          -1.5980    3.1530   -1.0500 O.2     1  UNL1        0.0414
     12 O          -3.3190    3.2360    0.3940 O.co2   1  UNL1       -0.5761
     13 C          -0.9720    0.5290   -0.3410 C.ar    1  UNL1        0.0260
     14 C           1.7110   -0.7270   -0.2220 C.ar    1  UNL1        0.0574
     15 C           2.6510   -0.5670   -1.2170 C.ar    1  UNL1       -0.0481
     16 C           3.8260    0.1490   -1.0170 C.ar    1  UNL1       -0.0609
     17 C           4.0980    0.7320    0.2040 C.ar    1  UNL1       -0.0590
     18 C           3.1640    0.5770    1.2040 C.ar    1  UNL1       -0.0257
     19 C           2.0020   -0.1320    1.0030 C.ar    1  UNL1        0.1342
     20 F           1.0760   -0.2860    1.9960 F       1  UNL1       -0.2047
     21 H          -1.8858   -2.5739    0.2596 H       1  UNL1        0.0661
     22 H          -4.2936   -2.6166    0.8113 H       1  UNL1        0.2921
     23 H          -0.1566    1.1068   -0.5984 H       1  UNL1        0.0692
     24 H           2.4771   -0.9926   -2.1409 H       1  UNL1        0.0625
     25 H           4.5024    0.2456   -1.7904 H       1  UNL1        0.0618
     26 H           4.9682    1.2639    0.3616 H       1  UNL1        0.0618
     27 H           3.3400    1.0033    2.1272 H       1  UNL1        0.0646
@<TRIPOS>UNITY_ATOM_ATTR
8 1
charge -1
10 1
charge 1
12 1
charge -1
@<TRIPOS>BOND
     1     1     2    2
     2     2     3    1
     3     2    14    1
     4     3     4   ar
     5     3    13   ar
     6     4     5   ar
     7     5     6    1
     8     5     7   ar
     9     7     8    1
    10     7     9   ar
    11     9    10    1
    12     9    13   ar
    13    10    11    2
    14    10    12    1
    15    14    15   ar
    16    14    19   ar
    17    15    16   ar
    18    16    17   ar
    19    17    18   ar
    20    18    19   ar
    21    19    20    1
    22     4    21    1
    23     6    22    1
    24    13    23    1
    25    15    24    1
    26    16    25    1
    27    17    26    1
    28    18    27    1
@<TRIPOS>MOLECULE
../data/bude_mols_rdkit_confs2/molecule_5.pdb
 27 28 0 0 0
SMALL
GASTEIGER

@<TRIPOS>ATOM
      1 O           0.4690   -1.2160    2.0690 O.2     1  UNL1       -0.2866
      2 C           0.4840   -0.4940    0.9870 C.2     1  UNL1        0.1962
      3 C          -0.7910   -0.0900    0.4500 C.ar    1  UNL1        0.0322
      4 C          -1.0200    0.9700   -0.3820 C.ar    1  UNL1       -0.0095
      5 C          -2.2850    1.2510   -0.8620 C.ar    1  UNL1        0.1163
      6 O          -2.5460    2.3250   -1.7100 O.3     1  UNL1       -0.5071
      7 C          -3.3670    0.4540   -0.5090 C.ar    1  UNL1        0.0141
      8 O          -4.6590    0.6690   -0.9430 O.co2   1  UNL1       -0.8670
      9 C          -3.1350   -0.6140    0.3270 C.ar    1  UNL1        0.2697
     10 N          -4.2170   -1.5030    0.7090 N.pl3   1  UNL1        0.0791
     11 O          -5.3780   -1.1180    0.8510 O.2     1  UNL1        0.0414
     12 O          -3.9150   -2.8480    0.9240 O.co2   1  UNL1       -0.5761
     13 C          -1.8900   -0.8860    0.7980 C.ar    1  UNL1        0.0260
     14 C           1.8020   -0.2120    0.4770 C.ar    1  UNL1        0.0574
     15 C           2.5530   -1.2880   -0.0500 C.ar    1  UNL1       -0.0481
     16 C           3.8080   -1.1070   -0.5830 C.ar    1  UNL1       -0.0609
     17 C           4.3350    0.1570   -0.5990 C.ar    1  UNL1       -0.0590
     18 C           3.5990    1.2010   -0.0860 C.ar    1  UNL1       -0.0257
     19 C           2.3220    1.0490    0.4640 C.ar    1  UNL1        0.1342
     20 F           1.6980    2.1470    0.9830 F       1  UNL1       -0.2047
     21 H          -0.2302    1.5742   -0.6580 H       1  UNL1        0.0661
     22 H          -1.8490    2.8916   -1.9766 H       1  UNL1        0.2921
     23 H          -1.7512   -1.6945    1.4242 H       1  UNL1        0.0692
     24 H           2.1476   -2.2369   -0.0342 H       1  UNL1        0.0625
     25 H           4.3404   -1.9056   -0.9623 H       1  UNL1        0.0618
     26 H           5.2744    0.3251   -0.9917 H       1  UNL1        0.0618
     27 H           4.0116    2.1467   -0.1084 H       1  UNL1        0.0646
@<TRIPOS>UNITY_ATOM_ATTR
8 1
charge -1
10 1
charge 1
12 1
charge -1
@<TRIPOS>BOND
     1     1     2    2
     2     2     3    1
     3     2    14    1
     4     3     4   ar
     5     3    13   ar
     6     4     5   ar
     7     5     6    1
     8     5     7   ar
     9     7     8    1
    10     7     9   ar
    11     9    10    1
    12     9    13   ar
    13    10    11    2
    14    10    12    1
    15    14    15   ar
    16    14    19   ar
    17    15    16   ar
    18    16    17   ar
    19    17    18   ar
    20    18    19   ar
    21    19    20    1
    22     4    21    1
    23     6    22    1
    24    13    23    1
    25    15    24    1
    26    16    25    1
    27    17    26    1
    28    18    27    1
@<TRIPOS>MOLECULE
../data/bude_mols_rdkit_confs2/molecule_5.pdb
 27 28 0 0 0
SMALL
GASTEIGER

@<TRIPOS>ATOM
      1 O           0.3690   -2.1980   -1.5540 O.2     1  UNL1       -0.2866
      2 C           0.4360   -1.1590   -0.8270 C.2     1  UNL1        0.1962
      3 C          -0.8290   -0.6650   -0.3250 C.ar    1  UNL1        0.0322
      4 C          -1.9400   -1.5010   -0.2530 C.ar    1  UNL1       -0.0095
      5 C          -3.1660   -1.1090    0.2250 C.ar    1  UNL1        0.1163
      6 O          -4.2620   -1.9540    0.2900 O.3     1  UNL1       -0.5071
      7 C          -3.3460    0.1970    0.6720 C.ar    1  UNL1        0.0141
      8 O          -4.5440    0.6410    1.1570 O.co2   1  UNL1       -0.8670
      9 C          -2.2590    1.0310    0.6060 C.ar    1  UNL1        0.2697
     10 N          -2.4340    2.3820    1.0530 N.pl3   1  UNL1        0.0791
     11 O          -3.5800    2.9060    0.9080 O.2     1  UNL1        0.0414
     12 O          -1.4470    3.1320    1.6230 O.co2   1  UNL1       -0.5761
     13 C          -1.0110    0.6190    0.1170 C.ar    1  UNL1        0.0260
     14 C           1.6910   -0.5180   -0.5190 C.ar    1  UNL1        0.0574
     15 C           2.5300   -1.1350    0.4160 C.ar    1  UNL1       -0.0481
     16 C           3.7260   -0.5600    0.7650 C.ar    1  UNL1       -0.0609
     17 C           4.1540    0.6260    0.2270 C.ar    1  UNL1       -0.0590
     18 C           3.3380    1.2520   -0.7000 C.ar    1  UNL1       -0.0257
     19 C           2.1230    0.6730   -1.0600 C.ar    1  UNL1        0.1342
     20 F           1.3750    1.3010   -1.9810 F       1  UNL1       -0.2047
     21 H          -1.8357   -2.4747   -0.5788 H       1  UNL1        0.0661
     22 H          -4.1869   -2.8418   -0.0000 H       1  UNL1        0.2921
     23 H          -0.2248    1.2870    0.0899 H       1  UNL1        0.0692
     24 H           2.2470   -2.0293    0.8463 H       1  UNL1        0.0625
     25 H           4.3245   -1.0373    1.4571 H       1  UNL1        0.0618
     26 H           5.0576    1.0400    0.5047 H       1  UNL1        0.0618
     27 H           3.6295    2.1466   -1.1239 H       1  UNL1        0.0646
@<TRIPOS>UNITY_ATOM_ATTR
8 1
charge -1
10 1
charge 1
12 1
charge -1
@<TRIPOS>BOND
     1     1     2    2
     2     2     3    1
     3     2    14    1
     4     3     4   ar
     5     3    13   ar
     6     4     5   ar
     7     5     6    1
     8     5     7   ar
     9     7     8    1
    10     7     9   ar
    11     9    10    1
    12     9    13   ar
    13    10    11    2
    14    10    12    1
    15    14    15   ar
    16    14    19   ar
    17    15    16   ar
    18    16    17   ar
    19    17    18   ar
    20    18    19   ar
    21    19    20    1
    22     4    21    1
    23     6    22    1
    24    13    23    1
    25    15    24    1
    26    16    25    1
    27    17    26    1
    28    18    27    1
@<TRIPOS>MOLECULE
../data/bude_mols_rdkit_confs2/molecule_5.pdb
 27 28 0 0 0
SMALL
GASTEIGER

@<TRIPOS>ATOM
      1 O           1.0630   -1.6920    1.8600 O.2     1  UNL1       -0.2866
      2 C           0.7520   -0.8800    0.9460 C.2     1  UNL1        0.1962
      3 C          -0.6590   -0.7120    0.6420 C.ar    1  UNL1        0.0322
      4 C          -1.4980   -1.7890    0.8770 C.ar    1  UNL1       -0.0095
      5 C          -2.8360   -1.6230    0.5990 C.ar    1  UNL1        0.1163
      6 O          -3.6940   -2.6900    0.8280 O.3     1  UNL1       -0.5071
      7 C          -3.3240   -0.4320    0.1070 C.ar    1  UNL1        0.0141
      8 O          -4.6650   -0.2360   -0.1820 O.co2   1  UNL1       -0.8670
      9 C          -2.4830    0.6550   -0.1310 C.ar    1  UNL1        0.2697
     10 N          -2.9760    1.8840   -0.6380 N.pl3   1  UNL1        0.0791
     11 O          -4.1310    2.2350   -0.3380 O.2     1  UNL1        0.0414
     12 O          -2.2320    2.6950   -1.4410 O.co2   1  UNL1       -0.5761
     13 C          -1.1450    0.4870    0.1470 C.ar    1  UNL1        0.0260
     14 C           1.7940   -0.1500    0.2380 C.ar    1  UNL1        0.0574
     15 C           1.6450    0.2470   -1.0720 C.ar    1  UNL1       -0.0481
     16 C           2.6380    0.9350   -1.7640 C.ar    1  UNL1       -0.0609
     17 C           3.8190    1.2280   -1.1030 C.ar    1  UNL1       -0.0590
     18 C           3.9740    0.8350    0.2040 C.ar    1  UNL1       -0.0257
     19 C           2.9940    0.1550    0.8890 C.ar    1  UNL1        0.1342
     20 F           3.1370   -0.2350    2.1710 F       1  UNL1       -0.2047
     21 H          -1.1340   -2.6813    1.2462 H       1  UNL1        0.0661
     22 H          -3.3578   -3.4981    1.1626 H       1  UNL1        0.2921
     23 H          -0.4919    1.2691   -0.0165 H       1  UNL1        0.0692
     24 H           0.7629    0.0259   -1.5599 H       1  UNL1        0.0625
     25 H           2.4973    1.2198   -2.7459 H       1  UNL1        0.0618
     26 H           4.5751    1.7365   -1.5875 H       1  UNL1        0.0618
     27 H           4.8571    1.0578    0.6893 H       1  UNL1        0.0646
@<TRIPOS>UNITY_ATOM_ATTR
8 1
charge -1
10 1
charge 1
12 1
charge -1
@<TRIPOS>BOND
     1     1     2    2
     2     2     3    1
     3     2    14    1
     4     3     4   ar
     5     3    13   ar
     6     4     5   ar
     7     5     6    1
     8     5     7   ar
     9     7     8    1
    10     7     9   ar
    11     9    10    1
    12     9    13   ar
    13    10    11    2
    14    10    12    1
    15    14    15   ar
    16    14    19   ar
    17    15    16   ar
    18    16    17   ar
    19    17    18   ar
    20    18    19   ar
    21    19    20    1
    22     4    21    1
    23     6    22    1
    24    13    23    1
    25    15    24    1
    26    16    25    1
    27    17    26    1
    28    18    27    1
@<TRIPOS>MOLECULE
../data/bude_mols_rdkit_confs2/molecule_5.pdb
 27 28 0 0 0
SMALL
GASTEIGER

@<TRIPOS>ATOM
      1 O          -0.3150    2.1640    1.2090 O.2     1  UNL1       -0.2866
      2 C          -0.4320    1.0960    0.4970 C.2     1  UNL1        0.1962
      3 C           0.8020    0.4700    0.0940 C.ar    1  UNL1        0.0322
      4 C           0.9050   -0.2510   -1.0550 C.ar    1  UNL1       -0.0095
      5 C           2.0950   -0.9160   -1.3910 C.ar    1  UNL1        0.1163
      6 O           2.1300   -1.6580   -2.5970 O.3     1  UNL1       -0.5071
      7 C           3.1600   -0.8280   -0.5440 C.ar    1  UNL1        0.0141
      8 O           4.3520   -1.4880   -0.8740 O.co2   1  UNL1       -0.8670
      9 C           3.1170   -0.1040    0.6380 C.ar    1  UNL1        0.2697
     10 N           4.2380   -0.0240    1.5290 N.pl3   1  UNL1        0.0791
     11 O           5.4070   -0.0510    1.1020 O.2     1  UNL1        0.0414
     12 O           4.0310    0.0850    2.8680 O.co2   1  UNL1       -0.5761
     13 C           1.9370    0.5360    0.9420 C.ar    1  UNL1        0.0260
     14 C          -1.7700    0.6320    0.1800 C.ar    1  UNL1        0.0574
     15 C          -2.0710   -0.6280   -0.2400 C.ar    1  UNL1       -0.0481
     16 C          -3.3570   -1.0370   -0.5310 C.ar    1  UNL1       -0.0609
     17 C          -4.4120   -0.1440   -0.3980 C.ar    1  UNL1       -0.0590
     18 C          -4.1230    1.1440    0.0300 C.ar    1  UNL1       -0.0257
     19 C          -2.8340    1.5140    0.3100 C.ar    1  UNL1        0.1342
     20 F          -2.5590    2.7710    0.7180 F       1  UNL1       -0.2047
     21 H           0.0943   -0.3102   -1.6908 H       1  UNL1        0.0661
     22 H           1.3736   -1.6907   -3.1491 H       1  UNL1        0.2921
     23 H           1.8761    1.0819    1.8157 H       1  UNL1        0.0692
     24 H          -1.3023   -1.3084   -0.3456 H       1  UNL1        0.0625
     25 H          -3.5338   -2.0036   -0.8465 H       1  UNL1        0.0618
     26 H          -5.3807   -0.4293   -0.6108 H       1  UNL1        0.0618
     27 H          -4.8865    1.8298    0.1384 H       1  UNL1        0.0646
@<TRIPOS>UNITY_ATOM_ATTR
8 1
charge -1
10 1
charge 1
12 1
charge -1
@<TRIPOS>BOND
     1     1     2    2
     2     2     3    1
     3     2    14    1
     4     3     4   ar
     5     3    13   ar
     6     4     5   ar
     7     5     6    1
     8     5     7   ar
     9     7     8    1
    10     7     9   ar
    11     9    10    1
    12     9    13   ar
    13    10    11    2
    14    10    12    1
    15    14    15   ar
    16    14    19   ar
    17    15    16   ar
    18    16    17   ar
    19    17    18   ar
    20    18    19   ar
    21    19    20    1
    22     4    21    1
    23     6    22    1
    24    13    23    1
    25    15    24    1
    26    16    25    1
    27    17    26    1
    28    18    27    1
@<TRIPOS>MOLECULE
../data/bude_mols_rdkit_confs2/molecule_5.pdb
 27 28 0 0 0
SMALL
GASTEIGER

@<TRIPOS>ATOM
      1 O           0.2610    1.7050   -2.0590 O.2     1  UNL1       -0.2866
      2 C           0.3520    0.8770   -1.1460 C.2     1  UNL1        0.1962
      3 C          -0.8280    0.3630   -0.4860 C.ar    1  UNL1        0.0322
      4 C          -0.8600   -0.8770    0.1140 C.ar    1  UNL1       -0.0095
      5 C          -1.9650   -1.3510    0.7900 C.ar    1  UNL1        0.1163
      6 O          -1.9990   -2.6030    1.4040 O.3     1  UNL1       -0.5071
      7 C          -3.1190   -0.5860    0.8970 C.ar    1  UNL1        0.0141
      8 O          -4.2540   -1.0260    1.5680 O.co2   1  UNL1       -0.8670
      9 C          -3.1130    0.6630    0.3020 C.ar    1  UNL1        0.2697
     10 N          -4.2960    1.4360    0.4160 N.pl3   1  UNL1        0.0791
     11 O          -4.6210    2.2760   -0.4290 O.2     1  UNL1        0.0414
     12 O          -5.1010    1.2340    1.5070 O.co2   1  UNL1       -0.5761
     13 C          -2.0030    1.1220   -0.3690 C.ar    1  UNL1        0.0260
     14 C           1.6840    0.4250   -0.7410 C.ar    1  UNL1        0.0574
     15 C           1.9460    0.0590    0.5640 C.ar    1  UNL1       -0.0481
     16 C           3.1660   -0.3460    0.9900 C.ar    1  UNL1       -0.0609
     17 C           4.2200   -0.4000    0.0660 C.ar    1  UNL1       -0.0590
     18 C           3.9990   -0.0480   -1.2270 C.ar    1  UNL1       -0.0257
     19 C           2.7390    0.3650   -1.6400 C.ar    1  UNL1        0.1342
     20 F           2.5320    0.7080   -2.9230 F       1  UNL1       -0.2047
     21 H          -0.0219   -1.4763    0.0551 H       1  UNL1        0.0661
     22 H          -1.2497   -3.1642    1.3654 H       1  UNL1        0.2921
     23 H          -2.0355    2.0582   -0.8020 H       1  UNL1        0.0692
     24 H           1.1745    0.0958    1.2484 H       1  UNL1        0.0625
     25 H           3.3175   -0.6100    1.9761 H       1  UNL1        0.0618
     26 H           5.1586   -0.7056    0.3671 H       1  UNL1        0.0618
     27 H           4.7734   -0.0877   -1.9079 H       1  UNL1        0.0646
@<TRIPOS>UNITY_ATOM_ATTR
8 1
charge -1
10 1
charge 1
12 1
charge -1
@<TRIPOS>BOND
     1     1     2    2
     2     2     3    1
     3     2    14    1
     4     3     4   ar
     5     3    13   ar
     6     4     5   ar
     7     5     6    1
     8     5     7   ar
     9     7     8    1
    10     7     9   ar
    11     9    10    1
    12     9    13   ar
    13    10    11    2
    14    10    12    1
    15    14    15   ar
    16    14    19   ar
    17    15    16   ar
    18    16    17   ar
    19    17    18   ar
    20    18    19   ar
    21    19    20    1
    22     4    21    1
    23     6    22    1
    24    13    23    1
    25    15    24    1
    26    16    25    1
    27    17    26    1
    28    18    27    1
@<TRIPOS>MOLECULE
../data/bude_mols_rdkit_confs2/molecule_5.pdb
 27 28 0 0 0
SMALL
GASTEIGER

@<TRIPOS>ATOM
      1 O           0.5740    2.0440    1.0360 O.2     1  UNL1       -0.2866
      2 C           0.5830    0.8650    0.4800 C.2     1  UNL1        0.1962
      3 C          -0.7360    0.2950    0.3300 C.ar    1  UNL1        0.0322
      4 C          -0.9780   -1.0310    0.2240 C.ar    1  UNL1       -0.0095
      5 C          -2.2800   -1.5060    0.0400 C.ar    1  UNL1        0.1163
      6 O          -2.4540   -2.8750   -0.0630 O.3     1  UNL1       -0.5071
      7 C          -3.3570   -0.6300   -0.0370 C.ar    1  UNL1        0.0141
      8 O          -4.6550   -1.1420   -0.2230 O.co2   1  UNL1       -0.8670
      9 C          -3.1350    0.7200    0.0680 C.ar    1  UNL1        0.2697
     10 N          -4.2270    1.6320   -0.0130 N.pl3   1  UNL1        0.0791
     11 O          -5.3480    1.3050    0.3770 O.2     1  UNL1        0.0414
     12 O          -3.9830    2.8730   -0.5460 O.co2   1  UNL1       -0.5761
     13 C          -1.8570    1.1610    0.2490 C.ar    1  UNL1        0.0260
     14 C           1.8590    0.3390    0.1080 C.ar    1  UNL1        0.0574
     15 C           2.3970   -0.8500    0.5060 C.ar    1  UNL1       -0.0481
     16 C           3.6880   -1.2200    0.0980 C.ar    1  UNL1       -0.0609
     17 C           4.4530   -0.4160   -0.7030 C.ar    1  UNL1       -0.0590
     18 C           3.9130    0.8060   -1.1180 C.ar    1  UNL1       -0.0257
     19 C           2.6460    1.1560   -0.7120 C.ar    1  UNL1        0.1342
     20 F           2.1200    2.3360   -1.1110 F       1  UNL1       -0.2047
     21 H          -0.1936   -1.6993    0.2795 H       1  UNL1        0.0661
     22 H          -1.7137   -3.4468   -0.0083 H       1  UNL1        0.2921
     23 H          -1.6971    2.1772    0.3313 H       1  UNL1        0.0692
     24 H           1.8505   -1.4821    1.1117 H       1  UNL1        0.0625
     25 H           4.0718   -2.1253    0.4113 H       1  UNL1        0.0618
     26 H           5.4011   -0.7030   -0.9925 H       1  UNL1        0.0618
     27 H           4.4597    1.4387   -1.7228 H       1  UNL1        0.0646
@<TRIPOS>UNITY_ATOM_ATTR
8 1
charge -1
10 1
charge 1
12 1
charge -1
@<TRIPOS>BOND
     1     1     2    2
     2     2     3    1
     3     2    14    1
     4     3     4   ar
     5     3    13   ar
     6     4     5   ar
     7     5     6    1
     8     5     7   ar
     9     7     8    1
    10     7     9   ar
    11     9    10    1
    12     9    13   ar
    13    10    11    2
    14    10    12    1
    15    14    15   ar
    16    14    19   ar
    17    15    16   ar
    18    16    17   ar
    19    17    18   ar
    20    18    19   ar
    21    19    20    1
    22     4    21    1
    23     6    22    1
    24    13    23    1
    25    15    24    1
    26    16    25    1
    27    17    26    1
    28    18    27    1
@<TRIPOS>MOLECULE
../data/bude_mols_rdkit_confs2/molecule_5.pdb
 27 28 0 0 0
SMALL
GASTEIGER

@<TRIPOS>ATOM
      1 O           0.9250    1.7940   -1.8150 O.2     1  UNL1       -0.2866
      2 C           0.6850    0.8980   -0.9320 C.2     1  UNL1        0.1962
      3 C          -0.6990    0.6560   -0.5890 C.ar    1  UNL1        0.0322
      4 C          -1.6690    1.6400   -0.8270 C.ar    1  UNL1       -0.0095
      5 C          -2.9950    1.4890   -0.5170 C.ar    1  UNL1        0.1163
      6 O          -3.9170    2.4890   -0.7710 O.3     1  UNL1       -0.5071
      7 C          -3.3720    0.2950    0.0600 C.ar    1  UNL1        0.0141
      8 O          -4.7050    0.1160    0.3830 O.co2   1  UNL1       -0.8670
      9 C          -2.4600   -0.7110    0.3190 C.ar    1  UNL1        0.2697
     10 N          -2.8710   -1.9400    0.9070 N.pl3   1  UNL1        0.0791
     11 O          -2.0230   -2.5740    1.5620 O.2     1  UNL1        0.0414
     12 O          -4.1270   -2.4340    0.7770 O.co2   1  UNL1       -0.5761
     13 C          -1.1080   -0.5130   -0.0160 C.ar    1  UNL1        0.0260
     14 C           1.8510    0.2410   -0.3870 C.ar    1  UNL1        0.0574
     15 C           2.6910    0.9790    0.4580 C.ar    1  UNL1       -0.0481
     16 C           3.8100    0.4370    1.0520 C.ar    1  UNL1       -0.0609
     17 C           4.1070   -0.8830    0.8000 C.ar    1  UNL1       -0.0590
     18 C           3.3250   -1.6670   -0.0210 C.ar    1  UNL1       -0.0257
     19 C           2.2070   -1.0690   -0.5970 C.ar    1  UNL1        0.1342
     20 F           1.4760   -1.8660   -1.4390 F       1  UNL1       -0.2047
     21 H          -1.3675    2.5271   -1.2596 H       1  UNL1        0.0661
     22 H          -3.6397    3.2931   -1.1639 H       1  UNL1        0.2921
     23 H          -0.4196   -1.2582    0.1732 H       1  UNL1        0.0692
     24 H           2.4622    1.9682    0.6428 H       1  UNL1        0.0625
     25 H           4.4097    1.0060    1.6697 H       1  UNL1        0.0618
     26 H           4.9424   -1.2995    1.2400 H       1  UNL1        0.0618
     27 H           3.5584   -2.6560   -0.2013 H       1  UNL1        0.0646
@<TRIPOS>UNITY_ATOM_ATTR
8 1
charge -1
10 1
charge 1
12 1
charge -1
@<TRIPOS>BOND
     1     1     2    2
     2     2     3    1
     3     2    14    1
     4     3     4   ar
     5     3    13   ar
     6     4     5   ar
     7     5     6    1
     8     5     7   ar
     9     7     8    1
    10     7     9   ar
    11     9    10    1
    12     9    13   ar
    13    10    11    2
    14    10    12    1
    15    14    15   ar
    16    14    19   ar
    17    15    16   ar
    18    16    17   ar
    19    17    18   ar
    20    18    19   ar
    21    19    20    1
    22     4    21    1
    23     6    22    1
    24    13    23    1
    25    15    24    1
    26    16    25    1
    27    17    26    1
    28    18    27    1
