@<TRIPOS>MOLECULE
../data/bude_mols_rdkit_confs2/molecule_71.pdb
 45 47 0 0 0
SMALL
GASTEIGER

@<TRIPOS>ATOM
      1 N          -8.1940    0.8420   -0.1030 N.pl3   1  UNL1       -0.3580
      2 C          -6.8380    0.4100   -0.1470 C.ar    1  UNL1        0.0246
      3 C          -6.5940   -0.8790   -0.5720 C.ar    1  UNL1       -0.0403
      4 C          -5.2810   -1.2880   -0.6120 C.ar    1  UNL1       -0.0479
      5 C          -4.2080   -0.5030   -0.2580 C.ar    1  UNL1        0.0370
      6 C          -2.8320   -0.9790   -0.3160 C.2     1  UNL1        0.2480
      7 O          -2.5940   -2.1740   -0.7090 O.2     1  UNL1       -0.2700
      8 N          -1.7160   -0.2000    0.0380 N.am    1  UNL1       -0.2709
      9 C          -0.3300   -0.6700   -0.0170 C.3     1  UNL1        0.0458
     10 N           0.4240   -0.0400   -1.0310 N.4     1  UNL1        0.2344
     11 C           0.2340   -0.8420    1.3420 C.3     1  UNL1        0.0149
     12 C           1.6330   -1.2940    1.4050 C.3     1  UNL1        0.0123
     13 C           2.6880   -0.4040    0.9510 C.ar    1  UNL1        0.1106
     14 N           3.9050   -0.9770    0.6990 N.ar    1  UNL1       -0.2337
     15 C           4.9800   -0.2990    0.3310 C.ar    1  UNL1        0.0781
     16 C           6.2110   -0.9120    0.0790 C.ar    1  UNL1       -0.0355
     17 C           7.3080   -0.1710   -0.3020 C.ar    1  UNL1       -0.0597
     18 C           7.2180    1.2020   -0.4470 C.ar    1  UNL1       -0.0609
     19 C           6.0020    1.8010   -0.1980 C.ar    1  UNL1       -0.0474
     20 C           4.8960    1.0790    0.1840 C.ar    1  UNL1        0.0647
     21 C           3.6730    1.6340    0.4410 C.ar    1  UNL1        0.2592
     22 O           3.5350    2.8770    0.3250 O.2     1  UNL1       -0.2672
     23 N           2.5930    0.9300    0.8130 N.ar    1  UNL1       -0.3103
     24 C          -4.4700    0.7780    0.1630 C.ar    1  UNL1       -0.0479
     25 C          -5.7870    1.2260    0.2160 C.ar    1  UNL1       -0.0403
     26 H          -8.9153    0.2278   -0.3708 H       1  UNL1        0.1423
     27 H          -8.4103    1.7549    0.1953 H       1  UNL1        0.1423
     28 H          -7.3629   -1.5095   -0.8481 H       1  UNL1        0.0636
     29 H          -5.0875   -2.2506   -0.9297 H       1  UNL1        0.0626
     30 H          -1.8770    0.7221    0.3429 H       1  UNL1        0.1543
     31 H          -0.2812   -1.6745   -0.3823 H       1  UNL1        0.1077
     32 H           0.4837    0.9600   -0.8388 H       1  UNL1        0.2013
     33 H          -0.0297   -0.1864   -1.9328 H       1  UNL1        0.2013
     34 H           1.3627   -0.4384   -1.0540 H       1  UNL1        0.2013
     35 H          -0.3666   -1.5620    1.8575 H       1  UNL1        0.0342
     36 H           0.2243    0.1320    1.7848 H       1  UNL1        0.0342
     37 H           1.7004   -2.1845    0.8156 H       1  UNL1        0.0346
     38 H           1.8201   -1.3952    2.4536 H       1  UNL1        0.0346
     39 H           6.2992   -1.9353    0.1800 H       1  UNL1        0.0639
     40 H           8.2069   -0.6452   -0.4813 H       1  UNL1        0.0618
     41 H           8.0370    1.7609   -0.7331 H       1  UNL1        0.0618
     42 H           5.9189    2.8244   -0.3016 H       1  UNL1        0.0626
     43 H           1.7377    1.3867    0.9836 H       1  UNL1        0.1700
     44 H          -3.6965    1.4035    0.4379 H       1  UNL1        0.0626
     45 H          -5.9809    2.1886    0.5335 H       1  UNL1        0.0636
@<TRIPOS>UNITY_ATOM_ATTR
10 1
charge 1
@<TRIPOS>BOND
     1     1     2    1
     2     2     3   ar
     3     2    25   ar
     4     3     4   ar
     5     4     5   ar
     6     5     6    1
     7     5    24   ar
     8     6     7    2
     9     6     8   am
    10     8     9    1
    11     9    10    1
    12     9    11    1
    13    11    12    1
    14    12    13    1
    15    13    14   ar
    16    13    23   ar
    17    14    15   ar
    18    15    16   ar
    19    15    20   ar
    20    16    17   ar
    21    17    18   ar
    22    18    19   ar
    23    19    20   ar
    24    20    21   ar
    25    21    22    2
    26    21    23   ar
    27    24    25   ar
    28     1    26    1
    29     1    27    1
    30     3    28    1
    31     4    29    1
    32     8    30    1
    33     9    31    1
    34    10    32    1
    35    10    33    1
    36    10    34    1
    37    11    35    1
    38    11    36    1
    39    12    37    1
    40    12    38    1
    41    16    39    1
    42    17    40    1
    43    18    41    1
    44    19    42    1
    45    23    43    1
    46    24    44    1
    47    25    45    1
@<TRIPOS>MOLECULE
../data/bude_mols_rdkit_confs2/molecule_71.pdb
 45 47 0 0 0
SMALL
GASTEIGER

@<TRIPOS>ATOM
      1 N           7.7810    2.1470    0.7720 N.pl3   1  UNL1       -0.3580
      2 C           6.5550    1.5750    0.3660 C.ar    1  UNL1        0.0246
      3 C           6.1370    1.6370   -0.9570 C.ar    1  UNL1       -0.0403
      4 C           4.9370    1.0690   -1.3140 C.ar    1  UNL1       -0.0479
      5 C           4.1020    0.4270   -0.4260 C.ar    1  UNL1        0.0370
      6 C           2.8610   -0.1310   -0.9290 C.2     1  UNL1        0.2480
      7 O           2.6000   -0.0070   -2.1500 O.2     1  UNL1       -0.2700
      8 N           1.9080   -0.8170   -0.1310 N.am    1  UNL1       -0.2709
      9 C           0.6750   -1.3680   -0.6520 C.3     1  UNL1        0.0458
     10 N           0.6800   -2.7940   -0.4450 N.4     1  UNL1        0.2344
     11 C          -0.5430   -0.8060    0.0300 C.3     1  UNL1        0.0149
     12 C          -1.7560   -1.4670   -0.6110 C.3     1  UNL1        0.0123
     13 C          -2.9680   -0.9460    0.0270 C.ar    1  UNL1        0.1106
     14 N          -3.5550    0.1570   -0.4930 N.ar    1  UNL1       -0.2337
     15 C          -4.6670    0.6250    0.1010 C.ar    1  UNL1        0.0781
     16 C          -5.2970    1.7520   -0.4030 C.ar    1  UNL1       -0.0355
     17 C          -6.4260    2.2540    0.1740 C.ar    1  UNL1       -0.0597
     18 C          -6.9620    1.6290    1.2930 C.ar    1  UNL1       -0.0609
     19 C          -6.3520    0.5100    1.8080 C.ar    1  UNL1       -0.0474
     20 C          -5.2060    0.0110    1.2110 C.ar    1  UNL1        0.0647
     21 C          -4.5870   -1.1110    1.7210 C.ar    1  UNL1        0.2592
     22 O          -5.0480   -1.7030    2.7360 O.2     1  UNL1       -0.2672
     23 N          -3.4780   -1.5550    1.1060 N.ar    1  UNL1       -0.3103
     24 C           4.5060    0.3610    0.8800 C.ar    1  UNL1       -0.0479
     25 C           5.7070    0.9260    1.2540 C.ar    1  UNL1       -0.0403
     26 H           8.3555    2.5992    0.1127 H       1  UNL1        0.1423
     27 H           8.0610    2.0935    1.7143 H       1  UNL1        0.1423
     28 H           6.7223    2.1055   -1.6662 H       1  UNL1        0.0636
     29 H           4.6455    1.1268   -2.3023 H       1  UNL1        0.0626
     30 H           2.0961   -0.9238    0.8294 H       1  UNL1        0.1543
     31 H           0.6252   -1.1125   -1.6899 H       1  UNL1        0.1077
     32 H           0.7281   -2.9923    0.5544 H       1  UNL1        0.2013
     33 H           1.4896   -3.2025   -0.9120 H       1  UNL1        0.2013
     34 H          -0.1741   -3.1966   -0.8308 H       1  UNL1        0.2013
     35 H          -0.5858    0.2541   -0.1089 H       1  UNL1        0.0342
     36 H          -0.5146   -0.9980    1.0822 H       1  UNL1        0.0342
     37 H          -1.7035   -2.5267   -0.4726 H       1  UNL1        0.0346
     38 H          -1.7757   -1.2534   -1.6593 H       1  UNL1        0.0346
     39 H          -4.9030    2.2216   -1.2332 H       1  UNL1        0.0639
     40 H          -6.8798    3.0937   -0.2185 H       1  UNL1        0.0618
     41 H          -7.8154    2.0036    1.7362 H       1  UNL1        0.0618
     42 H          -6.7474    0.0422    2.6385 H       1  UNL1        0.0626
     43 H          -3.0251   -2.3543    1.4599 H       1  UNL1        0.1700
     44 H           3.9141   -0.1098    1.5822 H       1  UNL1        0.0626
     45 H           5.9902    0.8634    2.2444 H       1  UNL1        0.0636
@<TRIPOS>UNITY_ATOM_ATTR
10 1
charge 1
@<TRIPOS>BOND
     1     1     2    1
     2     2     3   ar
     3     2    25   ar
     4     3     4   ar
     5     4     5   ar
     6     5     6    1
     7     5    24   ar
     8     6     7    2
     9     6     8   am
    10     8     9    1
    11     9    10    1
    12     9    11    1
    13    11    12    1
    14    12    13    1
    15    13    14   ar
    16    13    23   ar
    17    14    15   ar
    18    15    16   ar
    19    15    20   ar
    20    16    17   ar
    21    17    18   ar
    22    18    19   ar
    23    19    20   ar
    24    20    21   ar
    25    21    22    2
    26    21    23   ar
    27    24    25   ar
    28     1    26    1
    29     1    27    1
    30     3    28    1
    31     4    29    1
    32     8    30    1
    33     9    31    1
    34    10    32    1
    35    10    33    1
    36    10    34    1
    37    11    35    1
    38    11    36    1
    39    12    37    1
    40    12    38    1
    41    16    39    1
    42    17    40    1
    43    18    41    1
    44    19    42    1
    45    23    43    1
    46    24    44    1
    47    25    45    1
@<TRIPOS>MOLECULE
../data/bude_mols_rdkit_confs2/molecule_71.pdb
 45 47 0 0 0
SMALL
GASTEIGER

@<TRIPOS>ATOM
      1 N          -7.0060   -1.7840   -2.1310 N.pl3   1  UNL1       -0.3580
      2 C          -5.7170   -1.3620   -1.7310 C.ar    1  UNL1        0.0246
      3 C          -5.4990   -0.4370   -0.7380 C.ar    1  UNL1       -0.0403
      4 C          -4.2130   -0.0500   -0.3740 C.ar    1  UNL1       -0.0479
      5 C          -3.1060   -0.5730   -0.9900 C.ar    1  UNL1        0.0370
      6 C          -1.7800   -0.1480   -0.5820 C.2     1  UNL1        0.2480
      7 O          -0.7390   -0.5250   -1.2280 O.2     1  UNL1       -0.2700
      8 N          -1.5340    0.6880    0.5230 N.am    1  UNL1       -0.2709
      9 C          -0.1680    1.0940    0.8980 C.3     1  UNL1        0.0458
     10 N          -0.0890    2.5320    0.8180 N.4     1  UNL1        0.2344
     11 C           0.0560    0.5680    2.2990 C.3     1  UNL1        0.0149
     12 C           1.4200    0.9060    2.8260 C.3     1  UNL1        0.0123
     13 C           2.4240    0.2970    1.9240 C.ar    1  UNL1        0.1106
     14 N           2.8990    0.9810    0.8630 N.ar    1  UNL1       -0.2337
     15 C           3.8080    0.4630    0.0260 C.ar    1  UNL1        0.0781
     16 C           4.3000    1.1470   -1.0580 C.ar    1  UNL1       -0.0355
     17 C           5.2380    0.6010   -1.9150 C.ar    1  UNL1       -0.0597
     18 C           5.6800   -0.6630   -1.6620 C.ar    1  UNL1       -0.0609
     19 C           5.2210   -1.3920   -0.5920 C.ar    1  UNL1       -0.0474
     20 C           4.2720   -0.8100    0.2560 C.ar    1  UNL1        0.0647
     21 C           3.7950   -1.5050    1.3260 C.ar    1  UNL1        0.2592
     22 O           4.1830   -2.6760    1.5890 O.2     1  UNL1       -0.2672
     23 N           2.8700   -0.9460    2.1590 N.ar    1  UNL1       -0.3103
     24 C          -3.2950   -1.5050   -1.9910 C.ar    1  UNL1       -0.0479
     25 C          -4.5680   -1.8700   -2.3310 C.ar    1  UNL1       -0.0403
     26 H          -7.8044   -1.4108   -1.6922 H       1  UNL1        0.1423
     27 H          -7.1051   -2.4510   -2.8483 H       1  UNL1        0.1423
     28 H          -6.3078   -0.0199   -0.2512 H       1  UNL1        0.0636
     29 H          -4.0899    0.6469    0.3771 H       1  UNL1        0.0626
     30 H          -2.2942    1.0099    1.0594 H       1  UNL1        0.1543
     31 H           0.5905    0.7025    0.2529 H       1  UNL1        0.1077
     32 H          -0.7994    2.9457    1.4218 H       1  UNL1        0.2013
     33 H          -0.2470    2.8281   -0.1452 H       1  UNL1        0.2013
     34 H           0.8353    2.8391    1.1208 H       1  UNL1        0.2013
     35 H          -0.0541   -0.4963    2.2881 H       1  UNL1        0.0342
     36 H          -0.6651    1.0304    2.9401 H       1  UNL1        0.0342
     37 H           1.5347    0.5132    3.8147 H       1  UNL1        0.0346
     38 H           1.5507    1.9673    2.8644 H       1  UNL1        0.0346
     39 H           3.9574    2.1033   -1.2399 H       1  UNL1        0.0639
     40 H           5.5932    1.1356   -2.7232 H       1  UNL1        0.0618
     41 H           6.3798   -1.0847   -2.2925 H       1  UNL1        0.0618
     42 H           5.5684   -2.3479   -0.4173 H       1  UNL1        0.0626
     43 H           2.5306   -1.4540    2.9310 H       1  UNL1        0.1700
     44 H          -2.4851   -1.9211   -2.4767 H       1  UNL1        0.0626
     45 H          -4.6849   -2.5682   -3.0820 H       1  UNL1        0.0636
@<TRIPOS>UNITY_ATOM_ATTR
10 1
charge 1
@<TRIPOS>BOND
     1     1     2    1
     2     2     3   ar
     3     2    25   ar
     4     3     4   ar
     5     4     5   ar
     6     5     6    1
     7     5    24   ar
     8     6     7    2
     9     6     8   am
    10     8     9    1
    11     9    10    1
    12     9    11    1
    13    11    12    1
    14    12    13    1
    15    13    14   ar
    16    13    23   ar
    17    14    15   ar
    18    15    16   ar
    19    15    20   ar
    20    16    17   ar
    21    17    18   ar
    22    18    19   ar
    23    19    20   ar
    24    20    21   ar
    25    21    22    2
    26    21    23   ar
    27    24    25   ar
    28     1    26    1
    29     1    27    1
    30     3    28    1
    31     4    29    1
    32     8    30    1
    33     9    31    1
    34    10    32    1
    35    10    33    1
    36    10    34    1
    37    11    35    1
    38    11    36    1
    39    12    37    1
    40    12    38    1
    41    16    39    1
    42    17    40    1
    43    18    41    1
    44    19    42    1
    45    23    43    1
    46    24    44    1
    47    25    45    1
@<TRIPOS>MOLECULE
../data/bude_mols_rdkit_confs2/molecule_71.pdb
 45 47 0 0 0
SMALL
GASTEIGER

@<TRIPOS>ATOM
      1 N           6.8590    2.1270    1.1660 N.pl3   1  UNL1       -0.3580
      2 C           5.8000    1.2140    0.8180 C.ar    1  UNL1        0.0246
      3 C           4.7290    1.1110    1.6540 C.ar    1  UNL1       -0.0403
      4 C           3.6910    0.2630    1.3830 C.ar    1  UNL1       -0.0479
      5 C           3.7110   -0.5050    0.2530 C.ar    1  UNL1        0.0370
      6 C           2.6300   -1.3990   -0.0470 C.2     1  UNL1        0.2480
      7 O           2.6990   -2.0800   -1.1240 O.2     1  UNL1       -0.2700
      8 N           1.5060   -1.5690    0.7710 N.am    1  UNL1       -0.2709
      9 C           0.4470   -2.5100    0.3810 C.3     1  UNL1        0.0458
     10 N           0.3410   -3.5330    1.4310 N.4     1  UNL1        0.2344
     11 C          -0.8760   -1.8120    0.3250 C.3     1  UNL1        0.0149
     12 C          -0.9050   -0.6790   -0.6630 C.3     1  UNL1        0.0123
     13 C          -2.2590   -0.0590   -0.6370 C.ar    1  UNL1        0.1106
     14 N          -2.5800    0.9870   -1.4230 N.ar    1  UNL1       -0.2337
     15 C          -3.7970    1.5710   -1.4230 C.ar    1  UNL1        0.0781
     16 C          -4.1000    2.6390   -2.2350 C.ar    1  UNL1       -0.0355
     17 C          -5.3590    3.1980   -2.1970 C.ar    1  UNL1       -0.0597
     18 C          -6.3480    2.7210   -1.3590 C.ar    1  UNL1       -0.0609
     19 C          -6.0430    1.6500   -0.5460 C.ar    1  UNL1       -0.0474
     20 C          -4.7790    1.0920   -0.5870 C.ar    1  UNL1        0.0647
     21 C          -4.4470    0.0100    0.2250 C.ar    1  UNL1        0.2592
     22 O          -5.3520   -0.4180    0.9840 O.2     1  UNL1       -0.2672
     23 N          -3.2190   -0.5270    0.1800 N.ar    1  UNL1       -0.3103
     24 C           4.7920   -0.4020   -0.5950 C.ar    1  UNL1       -0.0479
     25 C           5.8430    0.4560   -0.3190 C.ar    1  UNL1       -0.0403
     26 H           6.7985    2.6591    1.9921 H       1  UNL1        0.1423
     27 H           7.6431    2.2187    0.5777 H       1  UNL1        0.1423
     28 H           4.7005    1.6857    2.5107 H       1  UNL1        0.0636
     29 H           2.8915    0.2030    2.0328 H       1  UNL1        0.0626
     30 H           1.4253   -1.0574    1.6083 H       1  UNL1        0.1543
     31 H           0.6857   -2.9267   -0.5752 H       1  UNL1        0.1077
     32 H           0.1130   -3.0863    2.3192 H       1  UNL1        0.2013
     33 H           1.2300   -4.0258    1.5166 H       1  UNL1        0.2013
     34 H          -0.3935   -4.1969    1.1859 H       1  UNL1        0.2013
     35 H          -1.0964   -1.4219    1.2967 H       1  UNL1        0.0342
     36 H          -1.6021   -2.5307    0.0070 H       1  UNL1        0.0342
     37 H          -0.6981   -1.0515   -1.6445 H       1  UNL1        0.0346
     38 H          -0.1649    0.0494   -0.4050 H       1  UNL1        0.0346
     39 H          -3.3845    3.0217   -2.8727 H       1  UNL1        0.0639
     40 H          -5.5695    3.9980   -2.8140 H       1  UNL1        0.0618
     41 H          -7.2853    3.1525   -1.3420 H       1  UNL1        0.0618
     42 H          -6.7572    1.2656    0.0921 H       1  UNL1        0.0626
     43 H          -3.0131   -1.2909    0.7659 H       1  UNL1        0.1700
     44 H           4.8188   -0.9755   -1.4525 H       1  UNL1        0.0626
     45 H           6.6473    0.5224   -0.9623 H       1  UNL1        0.0636
@<TRIPOS>UNITY_ATOM_ATTR
10 1
charge 1
@<TRIPOS>BOND
     1     1     2    1
     2     2     3   ar
     3     2    25   ar
     4     3     4   ar
     5     4     5   ar
     6     5     6    1
     7     5    24   ar
     8     6     7    2
     9     6     8   am
    10     8     9    1
    11     9    10    1
    12     9    11    1
    13    11    12    1
    14    12    13    1
    15    13    14   ar
    16    13    23   ar
    17    14    15   ar
    18    15    16   ar
    19    15    20   ar
    20    16    17   ar
    21    17    18   ar
    22    18    19   ar
    23    19    20   ar
    24    20    21   ar
    25    21    22    2
    26    21    23   ar
    27    24    25   ar
    28     1    26    1
    29     1    27    1
    30     3    28    1
    31     4    29    1
    32     8    30    1
    33     9    31    1
    34    10    32    1
    35    10    33    1
    36    10    34    1
    37    11    35    1
    38    11    36    1
    39    12    37    1
    40    12    38    1
    41    16    39    1
    42    17    40    1
    43    18    41    1
    44    19    42    1
    45    23    43    1
    46    24    44    1
    47    25    45    1
@<TRIPOS>MOLECULE
../data/bude_mols_rdkit_confs2/molecule_71.pdb
 45 47 0 0 0
SMALL
GASTEIGER

@<TRIPOS>ATOM
      1 N           7.3240    1.9330   -1.1720 N.pl3   1  UNL1       -0.3580
      2 C           6.0090    1.4230   -0.9490 C.ar    1  UNL1        0.0246
      3 C           5.6150    0.9880    0.2850 C.ar    1  UNL1       -0.0403
      4 C           4.3170    0.4990    0.4430 C.ar    1  UNL1       -0.0479
      5 C           3.4230    0.4420   -0.5980 C.ar    1  UNL1        0.0370
      6 C           2.0900   -0.0810   -0.3460 C.2     1  UNL1        0.2480
      7 O           1.2670   -0.1290   -1.3270 O.2     1  UNL1       -0.2700
      8 N           1.6020   -0.5470    0.8820 N.am    1  UNL1       -0.2709
      9 C           0.2310   -1.0610    1.0410 C.3     1  UNL1        0.0458
     10 N           0.2680   -2.4450    1.4990 N.4     1  UNL1        0.2344
     11 C          -0.4440   -0.1570    2.0190 C.3     1  UNL1        0.0149
     12 C          -1.8620   -0.5010    2.3260 C.3     1  UNL1        0.0123
     13 C          -2.7460   -0.4780    1.1430 C.ar    1  UNL1        0.1106
     14 N          -3.4080    0.6300    0.7460 N.ar    1  UNL1       -0.2337
     15 C          -4.2110    0.6620   -0.3230 C.ar    1  UNL1        0.0781
     16 C          -4.8880    1.7850   -0.7340 C.ar    1  UNL1       -0.0355
     17 C          -5.7020    1.7520   -1.8460 C.ar    1  UNL1       -0.0597
     18 C          -5.8710    0.6020   -2.5890 C.ar    1  UNL1       -0.0609
     19 C          -5.2050   -0.5170   -2.1920 C.ar    1  UNL1       -0.0474
     20 C          -4.3800   -0.4900   -1.0670 C.ar    1  UNL1        0.0647
     21 C          -3.6970   -1.6120   -0.6470 C.ar    1  UNL1        0.2592
     22 O          -3.8310   -2.6700   -1.3020 O.2     1  UNL1       -0.2672
     23 N          -2.8900   -1.6150    0.4400 N.ar    1  UNL1       -0.3103
     24 C           3.8310    0.8820   -1.8320 C.ar    1  UNL1       -0.0479
     25 C           5.1100    1.3660   -1.9990 C.ar    1  UNL1       -0.0403
     26 H           7.9680    1.9759   -0.4286 H       1  UNL1        0.1423
     27 H           7.5867    2.2417   -2.0692 H       1  UNL1        0.1423
     28 H           6.2652    1.0204    1.0857 H       1  UNL1        0.0636
     29 H           4.0189    0.1689    1.3743 H       1  UNL1        0.0626
     30 H           2.1967   -0.5302    1.6664 H       1  UNL1        0.1543
     31 H          -0.3096   -1.0668    0.1176 H       1  UNL1        0.1077
     32 H           0.7755   -2.4974    2.3822 H       1  UNL1        0.2013
     33 H           0.7389   -3.0214    0.8016 H       1  UNL1        0.2013
     34 H          -0.6845   -2.7842    1.6335 H       1  UNL1        0.2013
     35 H          -0.4227    0.8361    1.6213 H       1  UNL1        0.0342
     36 H           0.0929   -0.2601    2.9388 H       1  UNL1        0.0342
     37 H          -2.2340    0.2039    3.0399 H       1  UNL1        0.0346
     38 H          -1.8673   -1.5028    2.7019 H       1  UNL1        0.0346
     39 H          -4.7857    2.6642   -0.2034 H       1  UNL1        0.0639
     40 H          -6.1984    2.6109   -2.1304 H       1  UNL1        0.0618
     41 H          -6.4831    0.5903   -3.4198 H       1  UNL1        0.0618
     42 H          -5.3112   -1.3927   -2.7277 H       1  UNL1        0.0626
     43 H          -2.4171   -2.4349    0.7108 H       1  UNL1        0.1700
     44 H           3.1813    0.8504   -2.6332 H       1  UNL1        0.0626
     45 H           5.4052    1.6946   -2.9317 H       1  UNL1        0.0636
@<TRIPOS>UNITY_ATOM_ATTR
10 1
charge 1
@<TRIPOS>BOND
     1     1     2    1
     2     2     3   ar
     3     2    25   ar
     4     3     4   ar
     5     4     5   ar
     6     5     6    1
     7     5    24   ar
     8     6     7    2
     9     6     8   am
    10     8     9    1
    11     9    10    1
    12     9    11    1
    13    11    12    1
    14    12    13    1
    15    13    14   ar
    16    13    23   ar
    17    14    15   ar
    18    15    16   ar
    19    15    20   ar
    20    16    17   ar
    21    17    18   ar
    22    18    19   ar
    23    19    20   ar
    24    20    21   ar
    25    21    22    2
    26    21    23   ar
    27    24    25   ar
    28     1    26    1
    29     1    27    1
    30     3    28    1
    31     4    29    1
    32     8    30    1
    33     9    31    1
    34    10    32    1
    35    10    33    1
    36    10    34    1
    37    11    35    1
    38    11    36    1
    39    12    37    1
    40    12    38    1
    41    16    39    1
    42    17    40    1
    43    18    41    1
    44    19    42    1
    45    23    43    1
    46    24    44    1
    47    25    45    1
@<TRIPOS>MOLECULE
../data/bude_mols_rdkit_confs2/molecule_71.pdb
 45 47 0 0 0
SMALL
GASTEIGER

@<TRIPOS>ATOM
      1 N           7.1630    2.2100   -1.0460 N.pl3   1  UNL1       -0.3580
      2 C           6.0150    1.3520   -0.9870 C.ar    1  UNL1        0.0246
      3 C           5.1350    1.3970    0.0720 C.ar    1  UNL1       -0.0403
      4 C           4.0190    0.5670    0.1350 C.ar    1  UNL1       -0.0479
      5 C           3.7440   -0.3410   -0.8650 C.ar    1  UNL1        0.0370
      6 C           2.5850   -1.2270   -0.8360 C.2     1  UNL1        0.2480
      7 O           2.4150   -2.0240   -1.7930 O.2     1  UNL1       -0.2700
      8 N           1.6210   -1.2640    0.2010 N.am    1  UNL1       -0.2709
      9 C           0.4750   -2.1860    0.1650 C.3     1  UNL1        0.0458
     10 N           0.5270   -3.1020    1.2610 N.4     1  UNL1        0.2344
     11 C          -0.8230   -1.4220    0.0840 C.3     1  UNL1        0.0149
     12 C          -1.0230   -0.5030    1.2630 C.3     1  UNL1        0.0123
     13 C          -2.3250    0.1930    1.0770 C.ar    1  UNL1        0.1106
     14 N          -3.1120   -0.0280    0.0100 N.ar    1  UNL1       -0.2337
     15 C          -4.2910    0.5820   -0.1890 C.ar    1  UNL1        0.0781
     16 C          -5.0910    0.3470   -1.2880 C.ar    1  UNL1       -0.0355
     17 C          -6.3050    0.9880   -1.4740 C.ar    1  UNL1       -0.0597
     18 C          -6.7390    1.9020   -0.5220 C.ar    1  UNL1       -0.0609
     19 C          -5.9390    2.1320    0.5710 C.ar    1  UNL1       -0.0474
     20 C          -4.7310    1.4930    0.7530 C.ar    1  UNL1        0.0647
     21 C          -3.9170    1.7140    1.8450 C.ar    1  UNL1        0.2592
     22 O          -4.3530    2.5600    2.6940 O.2     1  UNL1       -0.2672
     23 N          -2.7430    1.0900    2.0180 N.ar    1  UNL1       -0.3103
     24 C           4.6370   -0.3760   -1.9240 C.ar    1  UNL1       -0.0479
     25 C           5.7410    0.4440   -1.9870 C.ar    1  UNL1       -0.0403
     26 H           7.3368    2.8504   -0.3187 H       1  UNL1        0.1423
     27 H           7.7771    2.1585   -1.8138 H       1  UNL1        0.1423
     28 H           5.3078    2.0645    0.8399 H       1  UNL1        0.0636
     29 H           3.3850    0.6329    0.9466 H       1  UNL1        0.0626
     30 H           1.7207   -0.6551    0.9682 H       1  UNL1        0.1543
     31 H           0.5295   -2.7793   -0.7238 H       1  UNL1        0.1077
     32 H           0.4781   -2.5849    2.1389 H       1  UNL1        0.2013
     33 H           1.4006   -3.6272    1.2240 H       1  UNL1        0.2013
     34 H          -0.2606   -3.7475    1.2023 H       1  UNL1        0.2013
     35 H          -1.6321   -2.1214    0.0522 H       1  UNL1        0.0342
     36 H          -0.7920   -0.8184   -0.7989 H       1  UNL1        0.0342
     37 H          -0.2294    0.2134    1.3056 H       1  UNL1        0.0346
     38 H          -1.0223   -1.0595    2.1769 H       1  UNL1        0.0346
     39 H          -4.7734   -0.3314   -1.9979 H       1  UNL1        0.0639
     40 H          -6.8790    0.7893   -2.3083 H       1  UNL1        0.0618
     41 H          -7.6387    2.3952   -0.6329 H       1  UNL1        0.0618
     42 H          -6.2544    2.8091    1.2831 H       1  UNL1        0.0626
     43 H          -2.1906    1.2757    2.8115 H       1  UNL1        0.1700
     44 H           4.4681   -1.0417   -2.6943 H       1  UNL1        0.0626
     45 H           6.3754    0.3776   -2.7983 H       1  UNL1        0.0636
@<TRIPOS>UNITY_ATOM_ATTR
10 1
charge 1
@<TRIPOS>BOND
     1     1     2    1
     2     2     3   ar
     3     2    25   ar
     4     3     4   ar
     5     4     5   ar
     6     5     6    1
     7     5    24   ar
     8     6     7    2
     9     6     8   am
    10     8     9    1
    11     9    10    1
    12     9    11    1
    13    11    12    1
    14    12    13    1
    15    13    14   ar
    16    13    23   ar
    17    14    15   ar
    18    15    16   ar
    19    15    20   ar
    20    16    17   ar
    21    17    18   ar
    22    18    19   ar
    23    19    20   ar
    24    20    21   ar
    25    21    22    2
    26    21    23   ar
    27    24    25   ar
    28     1    26    1
    29     1    27    1
    30     3    28    1
    31     4    29    1
    32     8    30    1
    33     9    31    1
    34    10    32    1
    35    10    33    1
    36    10    34    1
    37    11    35    1
    38    11    36    1
    39    12    37    1
    40    12    38    1
    41    16    39    1
    42    17    40    1
    43    18    41    1
    44    19    42    1
    45    23    43    1
    46    24    44    1
    47    25    45    1
@<TRIPOS>MOLECULE
../data/bude_mols_rdkit_confs2/molecule_71.pdb
 45 47 0 0 0
SMALL
GASTEIGER

@<TRIPOS>ATOM
      1 N          -7.3680    2.1340    0.7790 N.pl3   1  UNL1       -0.3580
      2 C          -6.2070    1.3550    0.6150 C.ar    1  UNL1        0.0246
      3 C          -5.2610    1.5790   -0.3550 C.ar    1  UNL1       -0.0403
      4 C          -4.1550    0.7310   -0.4080 C.ar    1  UNL1       -0.0479
      5 C          -3.9670   -0.3180    0.4610 C.ar    1  UNL1        0.0370
      6 C          -2.7950   -1.1950    0.3840 C.2     1  UNL1        0.2480
      7 O          -2.6470   -2.1560    1.1990 O.2     1  UNL1       -0.2700
      8 N          -1.7950   -0.9990   -0.6000 N.am    1  UNL1       -0.2709
      9 C          -0.6480   -1.9230   -0.6120 C.3     1  UNL1        0.0458
     10 N          -0.5260   -2.5430   -1.9290 N.4     1  UNL1        0.2344
     11 C           0.5770   -1.0600   -0.4060 C.3     1  UNL1        0.0149
     12 C           1.8460   -1.8800   -0.3960 C.3     1  UNL1        0.0123
     13 C           3.0410   -1.0230   -0.1930 C.ar    1  UNL1        0.1106
     14 N           2.9070    0.3230   -0.0440 N.ar    1  UNL1       -0.2337
     15 C           3.9680    1.1270    0.1410 C.ar    1  UNL1        0.0781
     16 C           3.8440    2.4940    0.2930 C.ar    1  UNL1       -0.0355
     17 C           4.9700    3.2840    0.4830 C.ar    1  UNL1       -0.0597
     18 C           6.2300    2.7400    0.5240 C.ar    1  UNL1       -0.0609
     19 C           6.3660    1.3760    0.3730 C.ar    1  UNL1       -0.0474
     20 C           5.2390    0.5950    0.1850 C.ar    1  UNL1        0.0647
     21 C           5.3750   -0.7600    0.0350 C.ar    1  UNL1        0.2592
     22 O           6.5470   -1.2410    0.0770 O.2     1  UNL1       -0.2672
     23 N           4.2870   -1.5180   -0.1470 N.ar    1  UNL1       -0.3103
     24 C          -4.9300   -0.5300    1.4330 C.ar    1  UNL1       -0.0479
     25 C          -6.0230    0.2930    1.5010 C.ar    1  UNL1       -0.0403
     26 H          -7.5400    2.8939    0.1771 H       1  UNL1        0.1423
     27 H          -8.0079    1.9190    1.4956 H       1  UNL1        0.1423
     28 H          -5.3658    2.3548   -1.0274 H       1  UNL1        0.0636
     29 H          -3.4425    0.8991   -1.1354 H       1  UNL1        0.0626
     30 H          -1.8645   -0.2678   -1.2556 H       1  UNL1        0.1543
     31 H          -0.7607   -2.6833    0.1324 H       1  UNL1        0.1077
     32 H          -0.4186   -1.8174   -2.6378 H       1  UNL1        0.2013
     33 H          -1.3642   -3.0897   -2.1264 H       1  UNL1        0.2013
     34 H           0.2900   -3.1549   -1.9425 H       1  UNL1        0.2013
     35 H           0.4874   -0.5492    0.5299 H       1  UNL1        0.0342
     36 H           0.6356   -0.3665   -1.2187 H       1  UNL1        0.0342
     37 H           1.9383   -2.3906   -1.3318 H       1  UNL1        0.0346
     38 H           1.7902   -2.5784    0.4127 H       1  UNL1        0.0346
     39 H           2.9094    2.9308    0.2652 H       1  UNL1        0.0639
     40 H           4.8572    4.3036    0.5960 H       1  UNL1        0.0618
     41 H           7.0581    3.3395    0.6649 H       1  UNL1        0.0618
     42 H           7.3014    0.9408    0.4000 H       1  UNL1        0.0626
     43 H           4.4074   -2.4894   -0.2526 H       1  UNL1        0.1700
     44 H          -4.8246   -1.3063    2.1048 H       1  UNL1        0.0626
     45 H          -6.7327    0.1221    2.2305 H       1  UNL1        0.0636
@<TRIPOS>UNITY_ATOM_ATTR
10 1
charge 1
@<TRIPOS>BOND
     1     1     2    1
     2     2     3   ar
     3     2    25   ar
     4     3     4   ar
     5     4     5   ar
     6     5     6    1
     7     5    24   ar
     8     6     7    2
     9     6     8   am
    10     8     9    1
    11     9    10    1
    12     9    11    1
    13    11    12    1
    14    12    13    1
    15    13    14   ar
    16    13    23   ar
    17    14    15   ar
    18    15    16   ar
    19    15    20   ar
    20    16    17   ar
    21    17    18   ar
    22    18    19   ar
    23    19    20   ar
    24    20    21   ar
    25    21    22    2
    26    21    23   ar
    27    24    25   ar
    28     1    26    1
    29     1    27    1
    30     3    28    1
    31     4    29    1
    32     8    30    1
    33     9    31    1
    34    10    32    1
    35    10    33    1
    36    10    34    1
    37    11    35    1
    38    11    36    1
    39    12    37    1
    40    12    38    1
    41    16    39    1
    42    17    40    1
    43    18    41    1
    44    19    42    1
    45    23    43    1
    46    24    44    1
    47    25    45    1
@<TRIPOS>MOLECULE
../data/bude_mols_rdkit_confs2/molecule_71.pdb
 45 47 0 0 0
SMALL
GASTEIGER

@<TRIPOS>ATOM
      1 N          -7.0100   -2.3780   -1.0510 N.pl3   1  UNL1       -0.3580
      2 C          -5.9290   -1.4780   -0.8290 C.ar    1  UNL1        0.0246
      3 C          -5.0180   -1.7230    0.1780 C.ar    1  UNL1       -0.0403
      4 C          -3.9500   -0.8640    0.4220 C.ar    1  UNL1       -0.0479
      5 C          -3.7720    0.2630   -0.3400 C.ar    1  UNL1        0.0370
      6 C          -2.6740    1.2040   -0.1360 C.2     1  UNL1        0.2480
      7 O          -2.5470    2.2360   -0.8660 O.2     1  UNL1       -0.2700
      8 N          -1.6850    1.0450    0.8700 N.am    1  UNL1       -0.2709
      9 C          -0.6030    2.0300    1.0240 C.3     1  UNL1        0.0458
     10 N          -0.7610    2.5960    2.3510 N.4     1  UNL1        0.2344
     11 C           0.7450    1.3450    0.9760 C.3     1  UNL1        0.0149
     12 C           0.9110    0.6290   -0.3710 C.3     1  UNL1        0.0123
     13 C           2.2390   -0.0110   -0.3430 C.ar    1  UNL1        0.1106
     14 N           3.3090    0.6640   -0.7830 N.ar    1  UNL1       -0.2337
     15 C           4.5420    0.0820   -0.7620 C.ar    1  UNL1        0.0781
     16 C           5.6310    0.7770   -1.2130 C.ar    1  UNL1       -0.0355
     17 C           6.8950    0.1770   -1.1900 C.ar    1  UNL1       -0.0597
     18 C           7.0080   -1.1110   -0.7080 C.ar    1  UNL1       -0.0609
     19 C           5.9100   -1.8310   -0.2450 C.ar    1  UNL1       -0.0474
     20 C           4.6890   -1.2040   -0.2860 C.ar    1  UNL1        0.0647
     21 C           3.5740   -1.8830    0.1630 C.ar    1  UNL1        0.2592
     22 O           3.6260   -3.0500    0.6080 O.2     1  UNL1       -0.2672
     23 N           2.3600   -1.2600    0.1230 N.ar    1  UNL1       -0.3103
     24 C          -4.6740    0.5150   -1.3440 C.ar    1  UNL1       -0.0479
     25 C          -5.7330   -0.3370   -1.5860 C.ar    1  UNL1       -0.0403
     26 H          -7.1085   -3.1780   -0.4858 H       1  UNL1        0.1423
     27 H          -7.6589   -2.2002   -1.7697 H       1  UNL1        0.1423
     28 H          -5.1312   -2.5642    0.7650 H       1  UNL1        0.0636
     29 H          -3.2861   -1.0768    1.1829 H       1  UNL1        0.0626
     30 H          -1.7236    0.2666    1.4716 H       1  UNL1        0.1543
     31 H          -0.6498    2.7627    0.2456 H       1  UNL1        0.1077
     32 H          -0.7075    1.8519    3.0466 H       1  UNL1        0.2013
     33 H          -1.6674    3.0590    2.4174 H       1  UNL1        0.2013
     34 H          -0.0191    3.2749    2.5216 H       1  UNL1        0.2013
     35 H           0.8096    0.6302    1.7696 H       1  UNL1        0.0342
     36 H           1.5189    2.0754    1.0879 H       1  UNL1        0.0342
     37 H           0.8573    1.3343   -1.1738 H       1  UNL1        0.0346
     38 H           0.1362   -0.0930   -0.5239 H       1  UNL1        0.0346
     39 H           5.5206    1.7395   -1.5686 H       1  UNL1        0.0639
     40 H           7.7261    0.6877   -1.5268 H       1  UNL1        0.0618
     41 H           7.9389   -1.5561   -0.6901 H       1  UNL1        0.0618
     42 H           6.0094   -2.7937    0.1133 H       1  UNL1        0.0626
     43 H           1.5602   -1.7372    0.4422 H       1  UNL1        0.1700
     44 H          -4.5581    1.3573   -1.9289 H       1  UNL1        0.0626
     45 H          -6.3930   -0.1178   -2.3485 H       1  UNL1        0.0636
@<TRIPOS>UNITY_ATOM_ATTR
10 1
charge 1
@<TRIPOS>BOND
     1     1     2    1
     2     2     3   ar
     3     2    25   ar
     4     3     4   ar
     5     4     5   ar
     6     5     6    1
     7     5    24   ar
     8     6     7    2
     9     6     8   am
    10     8     9    1
    11     9    10    1
    12     9    11    1
    13    11    12    1
    14    12    13    1
    15    13    14   ar
    16    13    23   ar
    17    14    15   ar
    18    15    16   ar
    19    15    20   ar
    20    16    17   ar
    21    17    18   ar
    22    18    19   ar
    23    19    20   ar
    24    20    21   ar
    25    21    22    2
    26    21    23   ar
    27    24    25   ar
    28     1    26    1
    29     1    27    1
    30     3    28    1
    31     4    29    1
    32     8    30    1
    33     9    31    1
    34    10    32    1
    35    10    33    1
    36    10    34    1
    37    11    35    1
    38    11    36    1
    39    12    37    1
    40    12    38    1
    41    16    39    1
    42    17    40    1
    43    18    41    1
    44    19    42    1
    45    23    43    1
    46    24    44    1
    47    25    45    1
@<TRIPOS>MOLECULE
../data/bude_mols_rdkit_confs2/molecule_71.pdb
 45 47 0 0 0
SMALL
GASTEIGER

@<TRIPOS>ATOM
      1 N          -6.6320    2.6350    1.3430 N.pl3   1  UNL1       -0.3580
      2 C          -5.6590    1.7580    0.7710 C.ar    1  UNL1        0.0246
      3 C          -6.0400    0.6630    0.0120 C.ar    1  UNL1       -0.0403
      4 C          -5.0820   -0.1640   -0.5270 C.ar    1  UNL1       -0.0479
      5 C          -3.7280    0.0470   -0.3460 C.ar    1  UNL1        0.0370
      6 C          -2.7710   -0.8690   -0.9450 C.2     1  UNL1        0.2480
      7 O          -3.1840   -1.8540   -1.6290 O.2     1  UNL1       -0.2700
      8 N          -1.3810   -0.7240   -0.8080 N.am    1  UNL1       -0.2709
      9 C          -0.3990   -1.6480   -1.4130 C.3     1  UNL1        0.0458
     10 N           0.2910   -0.9720   -2.4340 N.4     1  UNL1        0.2344
     11 C           0.3060   -2.4070   -0.3710 C.3     1  UNL1        0.0149
     12 C           1.0890   -1.7220    0.6530 C.3     1  UNL1        0.0123
     13 C           2.2840   -0.9750    0.3100 C.ar    1  UNL1        0.1106
     14 N           2.7570   -0.1370    1.2840 N.ar    1  UNL1       -0.2337
     15 C           3.8480    0.6040    1.1920 C.ar    1  UNL1        0.0781
     16 C           4.2420    1.4250    2.2450 C.ar    1  UNL1       -0.0355
     17 C           5.3740    2.1880    2.1370 C.ar    1  UNL1       -0.0597
     18 C           6.1020    2.1190    0.9670 C.ar    1  UNL1       -0.0609
     19 C           5.7180    1.3100   -0.0770 C.ar    1  UNL1       -0.0474
     20 C           4.5810    0.5460    0.0370 C.ar    1  UNL1        0.0647
     21 C           4.1320   -0.2850   -0.9580 C.ar    1  UNL1        0.2592
     22 O           4.8030   -0.3380   -2.0160 O.2     1  UNL1       -0.2672
     23 N           3.0070   -1.0190   -0.8020 N.ar    1  UNL1       -0.3103
     24 C          -3.3780    1.1340    0.4070 C.ar    1  UNL1       -0.0479
     25 C          -4.3110    1.9680    0.9510 C.ar    1  UNL1       -0.0403
     26 H          -7.5914    2.4654    1.2012 H       1  UNL1        0.1423
     27 H          -6.3428    3.4086    1.8788 H       1  UNL1        0.1423
     28 H          -7.0407    0.4683   -0.1486 H       1  UNL1        0.0636
     29 H          -5.3863   -0.9743   -1.0889 H       1  UNL1        0.0626
     30 H          -1.0421    0.0347   -0.2800 H       1  UNL1        0.1543
     31 H          -0.8238   -2.4657   -1.9569 H       1  UNL1        0.1077
     32 H           0.7540   -0.1505   -2.0452 H       1  UNL1        0.2013
     33 H          -0.3689   -0.6809   -3.1553 H       1  UNL1        0.2013
     34 H           0.9886   -1.5940   -2.8425 H       1  UNL1        0.2013
     35 H           0.9778   -3.0683   -0.8772 H       1  UNL1        0.0342
     36 H          -0.4955   -2.8377    0.1920 H       1  UNL1        0.0342
     37 H           1.3904   -2.4705    1.3557 H       1  UNL1        0.0346
     38 H           0.4207   -0.9544    0.9832 H       1  UNL1        0.0346
     39 H           3.6794    1.4587    3.1095 H       1  UNL1        0.0639
     40 H           5.6752    2.7996    2.9117 H       1  UNL1        0.0618
     41 H           6.9569    2.6893    0.8727 H       1  UNL1        0.0618
     42 H           6.2806    1.2768   -0.9415 H       1  UNL1        0.0626
     43 H           2.7149   -1.6050   -1.5372 H       1  UNL1        0.1700
     44 H          -2.3776    1.3293    0.5686 H       1  UNL1        0.0626
     45 H          -3.9980    2.7762    1.5112 H       1  UNL1        0.0636
@<TRIPOS>UNITY_ATOM_ATTR
10 1
charge 1
@<TRIPOS>BOND
     1     1     2    1
     2     2     3   ar
     3     2    25   ar
     4     3     4   ar
     5     4     5   ar
     6     5     6    1
     7     5    24   ar
     8     6     7    2
     9     6     8   am
    10     8     9    1
    11     9    10    1
    12     9    11    1
    13    11    12    1
    14    12    13    1
    15    13    14   ar
    16    13    23   ar
    17    14    15   ar
    18    15    16   ar
    19    15    20   ar
    20    16    17   ar
    21    17    18   ar
    22    18    19   ar
    23    19    20   ar
    24    20    21   ar
    25    21    22    2
    26    21    23   ar
    27    24    25   ar
    28     1    26    1
    29     1    27    1
    30     3    28    1
    31     4    29    1
    32     8    30    1
    33     9    31    1
    34    10    32    1
    35    10    33    1
    36    10    34    1
    37    11    35    1
    38    11    36    1
    39    12    37    1
    40    12    38    1
    41    16    39    1
    42    17    40    1
    43    18    41    1
    44    19    42    1
    45    23    43    1
    46    24    44    1
    47    25    45    1
@<TRIPOS>MOLECULE
../data/bude_mols_rdkit_confs2/molecule_71.pdb
 45 47 0 0 0
SMALL
GASTEIGER

@<TRIPOS>ATOM
      1 N          -6.2140    1.8960    2.1470 N.pl3   1  UNL1       -0.3580
      2 C          -5.0600    1.4360    1.4570 C.ar    1  UNL1        0.0246
      3 C          -4.5330    0.1700    1.7030 C.ar    1  UNL1       -0.0403
      4 C          -3.4140   -0.2570    1.0230 C.ar    1  UNL1       -0.0479
      5 C          -2.7660    0.5210    0.0840 C.ar    1  UNL1        0.0370
      6 C          -1.5830    0.0120   -0.5990 C.2     1  UNL1        0.2480
      7 O          -1.1240   -1.1280   -0.2600 O.2     1  UNL1       -0.2700
      8 N          -0.9040    0.7010   -1.6190 N.am    1  UNL1       -0.2709
      9 C           0.2740    0.1490   -2.2660 C.3     1  UNL1        0.0458
     10 N          -0.0410   -0.1550   -3.6750 N.4     1  UNL1        0.2344
     11 C           1.3960    1.1430   -2.3090 C.3     1  UNL1        0.0149
     12 C           1.8720    1.6370   -0.9960 C.3     1  UNL1        0.0123
     13 C           2.3860    0.5980   -0.0850 C.ar    1  UNL1        0.1106
     14 N           2.4380   -0.7160   -0.3680 N.ar    1  UNL1       -0.2337
     15 C           2.9290   -1.6090    0.5310 C.ar    1  UNL1        0.0781
     16 C           2.9830   -2.9560    0.2420 C.ar    1  UNL1       -0.0355
     17 C           3.4850   -3.8630    1.1600 C.ar    1  UNL1       -0.0597
     18 C           3.9490   -3.4670    2.3950 C.ar    1  UNL1       -0.0609
     19 C           3.8980   -2.1210    2.6900 C.ar    1  UNL1       -0.0474
     20 C           3.3920   -1.2070    1.7640 C.ar    1  UNL1        0.0647
     21 C           3.3330    0.1430    2.0400 C.ar    1  UNL1        0.2592
     22 O           3.7550    0.5260    3.1690 O.2     1  UNL1       -0.2672
     23 N           2.8400    0.9950    1.1250 N.ar    1  UNL1       -0.3103
     24 C          -3.2880    1.7660   -0.1560 C.ar    1  UNL1       -0.0479
     25 C          -4.4120    2.2060    0.5210 C.ar    1  UNL1       -0.0403
     26 H          -6.6533    1.3176    2.8116 H       1  UNL1        0.1423
     27 H          -6.5742    2.7931    1.9604 H       1  UNL1        0.1423
     28 H          -4.9819   -0.4490    2.3961 H       1  UNL1        0.0636
     29 H          -3.0438   -1.1991    1.2239 H       1  UNL1        0.0626
     30 H          -1.2363    1.5831   -1.9032 H       1  UNL1        0.1543
     31 H           0.5601   -0.7181   -1.7081 H       1  UNL1        0.1077
     32 H          -0.3061    0.7039   -4.1571 H       1  UNL1        0.2013
     33 H          -0.8137   -0.8197   -3.7149 H       1  UNL1        0.2013
     34 H           0.7790   -0.5594   -4.1271 H       1  UNL1        0.2013
     35 H           1.0647    1.9873   -2.8767 H       1  UNL1        0.0342
     36 H           2.2260    0.6250   -2.7422 H       1  UNL1        0.0342
     37 H           1.0547    2.1283   -0.5107 H       1  UNL1        0.0346
     38 H           2.6972    2.2857   -1.2034 H       1  UNL1        0.0346
     39 H           2.6441   -3.2934   -0.6725 H       1  UNL1        0.0639
     40 H           3.5123   -4.8643    0.9118 H       1  UNL1        0.0618
     41 H           4.3202   -4.1509    3.0729 H       1  UNL1        0.0618
     42 H           4.2375   -1.7857    3.6051 H       1  UNL1        0.0626
     43 H           2.8079    1.9538    1.3463 H       1  UNL1        0.1700
     44 H          -2.8372    2.3825   -0.8500 H       1  UNL1        0.0626
     45 H          -4.7777    3.1488    0.3150 H       1  UNL1        0.0636
@<TRIPOS>UNITY_ATOM_ATTR
10 1
charge 1
@<TRIPOS>BOND
     1     1     2    1
     2     2     3   ar
     3     2    25   ar
     4     3     4   ar
     5     4     5   ar
     6     5     6    1
     7     5    24   ar
     8     6     7    2
     9     6     8   am
    10     8     9    1
    11     9    10    1
    12     9    11    1
    13    11    12    1
    14    12    13    1
    15    13    14   ar
    16    13    23   ar
    17    14    15   ar
    18    15    16   ar
    19    15    20   ar
    20    16    17   ar
    21    17    18   ar
    22    18    19   ar
    23    19    20   ar
    24    20    21   ar
    25    21    22    2
    26    21    23   ar
    27    24    25   ar
    28     1    26    1
    29     1    27    1
    30     3    28    1
    31     4    29    1
    32     8    30    1
    33     9    31    1
    34    10    32    1
    35    10    33    1
    36    10    34    1
    37    11    35    1
    38    11    36    1
    39    12    37    1
    40    12    38    1
    41    16    39    1
    42    17    40    1
    43    18    41    1
    44    19    42    1
    45    23    43    1
    46    24    44    1
    47    25    45    1
@<TRIPOS>MOLECULE
../data/bude_mols_rdkit_confs2/molecule_71.pdb
 45 47 0 0 0
SMALL
GASTEIGER

@<TRIPOS>ATOM
      1 N           7.0470   -1.1930    0.6150 N.pl3   1  UNL1       -0.3580
      2 C           5.7270   -0.6580    0.5080 C.ar    1  UNL1        0.0246
      3 C           4.9190   -0.5100    1.6170 C.ar    1  UNL1       -0.0403
      4 C           3.6460    0.0080    1.5080 C.ar    1  UNL1       -0.0479
      5 C           3.1070    0.4050    0.2970 C.ar    1  UNL1        0.0370
      6 C           1.7520    0.9520    0.2080 C.2     1  UNL1        0.2480
      7 O           1.0830    1.0500    1.2790 O.2     1  UNL1       -0.2700
      8 N           1.1200    1.3800   -0.9620 N.am    1  UNL1       -0.2709
      9 C          -0.2110    1.9170   -1.0610 C.3     1  UNL1        0.0458
     10 N          -0.0110    3.3550   -1.3520 N.4     1  UNL1        0.2344
     11 C          -1.0740    1.3940   -2.1300 C.3     1  UNL1        0.0149
     12 C          -1.3700   -0.0720   -2.1100 C.3     1  UNL1        0.0123
     13 C          -2.0660   -0.5200   -0.8800 C.ar    1  UNL1        0.1106
     14 N          -3.4310   -0.4790   -0.8730 N.ar    1  UNL1       -0.2337
     15 C          -4.1530   -0.8680    0.1880 C.ar    1  UNL1        0.0781
     16 C          -5.5260   -0.8000    0.1250 C.ar    1  UNL1       -0.0355
     17 C          -6.2630   -1.2030    1.2250 C.ar    1  UNL1       -0.0597
     18 C          -5.6080   -1.6600    2.3500 C.ar    1  UNL1       -0.0609
     19 C          -4.2320   -1.7150    2.3770 C.ar    1  UNL1       -0.0474
     20 C          -3.4730   -1.3230    1.3040 C.ar    1  UNL1        0.0647
     21 C          -2.1050   -1.3690    1.3110 C.ar    1  UNL1        0.2592
     22 O          -1.4880   -1.7840    2.3280 O.2     1  UNL1       -0.2672
     23 N          -1.4240   -0.9650    0.2130 N.ar    1  UNL1       -0.3103
     24 C           3.9100    0.2590   -0.8120 C.ar    1  UNL1       -0.0479
     25 C           5.1970   -0.2640   -0.7030 C.ar    1  UNL1       -0.0403
     26 H           7.3979   -1.4656    1.4935 H       1  UNL1        0.1423
     27 H           7.6059   -1.2891   -0.1897 H       1  UNL1        0.1423
     28 H           5.2739   -0.7920    2.5441 H       1  UNL1        0.0636
     29 H           3.0737    0.1032    2.3615 H       1  UNL1        0.0626
     30 H           1.6343    1.3072   -1.7983 H       1  UNL1        0.1543
     31 H          -0.7140    1.6597   -0.1523 H       1  UNL1        0.1077
     32 H           0.4772    3.4571   -2.2417 H       1  UNL1        0.2013
     33 H           0.5447    3.7782   -0.6087 H       1  UNL1        0.2013
     34 H          -0.9171    3.8202   -1.4060 H       1  UNL1        0.2013
     35 H          -0.6003    1.6146   -3.0637 H       1  UNL1        0.0342
     36 H          -2.0205    1.8698   -1.9797 H       1  UNL1        0.0342
     37 H          -0.4455   -0.6049   -2.1888 H       1  UNL1        0.0346
     38 H          -2.0256   -0.2711   -2.9318 H       1  UNL1        0.0346
     39 H          -5.9970   -0.4552   -0.7260 H       1  UNL1        0.0639
     40 H          -7.2940   -1.1620    1.2039 H       1  UNL1        0.0618
     41 H          -6.1509   -1.9617    3.1742 H       1  UNL1        0.0618
     42 H          -3.7596   -2.0603    3.2271 H       1  UNL1        0.0626
     43 H          -0.4401   -0.9979    0.2155 H       1  UNL1        0.1700
     44 H           3.5531    0.5413   -1.7383 H       1  UNL1        0.0626
     45 H           5.7716   -0.3595   -1.5549 H       1  UNL1        0.0636
@<TRIPOS>UNITY_ATOM_ATTR
10 1
charge 1
@<TRIPOS>BOND
     1     1     2    1
     2     2     3   ar
     3     2    25   ar
     4     3     4   ar
     5     4     5   ar
     6     5     6    1
     7     5    24   ar
     8     6     7    2
     9     6     8   am
    10     8     9    1
    11     9    10    1
    12     9    11    1
    13    11    12    1
    14    12    13    1
    15    13    14   ar
    16    13    23   ar
    17    14    15   ar
    18    15    16   ar
    19    15    20   ar
    20    16    17   ar
    21    17    18   ar
    22    18    19   ar
    23    19    20   ar
    24    20    21   ar
    25    21    22    2
    26    21    23   ar
    27    24    25   ar
    28     1    26    1
    29     1    27    1
    30     3    28    1
    31     4    29    1
    32     8    30    1
    33     9    31    1
    34    10    32    1
    35    10    33    1
    36    10    34    1
    37    11    35    1
    38    11    36    1
    39    12    37    1
    40    12    38    1
    41    16    39    1
    42    17    40    1
    43    18    41    1
    44    19    42    1
    45    23    43    1
    46    24    44    1
    47    25    45    1
@<TRIPOS>MOLECULE
../data/bude_mols_rdkit_confs2/molecule_71.pdb
 45 47 0 0 0
SMALL
GASTEIGER

@<TRIPOS>ATOM
      1 N          -6.3680   -3.2600   -0.5960 N.pl3   1  UNL1       -0.3580
      2 C          -5.4870   -2.1520   -0.4780 C.ar    1  UNL1        0.0246
      3 C          -5.7080   -0.9800   -1.2010 C.ar    1  UNL1       -0.0403
      4 C          -4.8730    0.1060   -1.1060 C.ar    1  UNL1       -0.0479
      5 C          -3.7470    0.0930   -0.2710 C.ar    1  UNL1        0.0370
      6 C          -2.8800    1.2560   -0.1890 C.2     1  UNL1        0.2480
      7 O          -3.1590    2.2670   -0.8820 O.2     1  UNL1       -0.2700
      8 N          -1.7480    1.3120    0.6220 N.am    1  UNL1       -0.2709
      9 C          -0.8720    2.4720    0.7110 C.3     1  UNL1        0.0458
     10 N          -0.7030    2.9390    2.0510 N.4     1  UNL1        0.2344
     11 C           0.4530    2.0330    0.0730 C.3     1  UNL1        0.0149
     12 C           1.0590    0.8680    0.7920 C.3     1  UNL1        0.0123
     13 C           2.3280    0.4790    0.1390 C.ar    1  UNL1        0.1106
     14 N           3.0430   -0.5460    0.6640 N.ar    1  UNL1       -0.2337
     15 C           4.2030   -0.9630    0.1280 C.ar    1  UNL1        0.0781
     16 C           4.9200   -2.0100    0.6750 C.ar    1  UNL1       -0.0355
     17 C           6.1100   -2.4140    0.0980 C.ar    1  UNL1       -0.0597
     18 C           6.5660   -1.7480   -1.0360 C.ar    1  UNL1       -0.0609
     19 C           5.8230   -0.7070   -1.5540 C.ar    1  UNL1       -0.0474
     20 C           4.6280   -0.2840   -0.9950 C.ar    1  UNL1        0.0647
     21 C           3.8990    0.7520   -1.5210 C.ar    1  UNL1        0.2592
     22 O           4.2940    1.3660   -2.5450 O.2     1  UNL1       -0.2672
     23 N           2.7400    1.1370   -0.9490 N.ar    1  UNL1       -0.3103
     24 C          -3.5470   -1.0720    0.4340 C.ar    1  UNL1       -0.0479
     25 C          -4.3830   -2.1680    0.3430 C.ar    1  UNL1       -0.0403
     26 H          -7.1473   -3.2076   -1.1953 H       1  UNL1        0.1423
     27 H          -6.1993   -4.0804   -0.0785 H       1  UNL1        0.1423
     28 H          -6.5260   -0.9272   -1.8280 H       1  UNL1        0.0636
     29 H          -5.0790    0.9508   -1.6618 H       1  UNL1        0.0626
     30 H          -1.5278    0.5217    1.1662 H       1  UNL1        0.1543
     31 H          -1.2942    3.3114    0.1991 H       1  UNL1        0.1077
     32 H          -0.3000    2.1959    2.6218 H       1  UNL1        0.2013
     33 H          -1.6092    3.2085    2.4340 H       1  UNL1        0.2013
     34 H          -0.0792    3.7460    2.0537 H       1  UNL1        0.2013
     35 H           1.1397    2.8531    0.1024 H       1  UNL1        0.0342
     36 H           0.2531    1.7337   -0.9346 H       1  UNL1        0.0342
     37 H           0.3790    0.0423    0.7663 H       1  UNL1        0.0346
     38 H           1.2549    1.1434    1.8072 H       1  UNL1        0.0346
     39 H           4.5664   -2.4917    1.5164 H       1  UNL1        0.0639
     40 H           6.6504   -3.1954    0.5010 H       1  UNL1        0.0618
     41 H           7.4513   -2.0301   -1.4851 H       1  UNL1        0.0618
     42 H           6.1730   -0.2221   -2.3951 H       1  UNL1        0.0626
     43 H           2.2131    1.8805   -1.3217 H       1  UNL1        0.1700
     44 H          -2.7307   -1.1297    1.0628 H       1  UNL1        0.0626
     45 H          -4.1762   -3.0121    0.8996 H       1  UNL1        0.0636
@<TRIPOS>UNITY_ATOM_ATTR
10 1
charge 1
@<TRIPOS>BOND
     1     1     2    1
     2     2     3   ar
     3     2    25   ar
     4     3     4   ar
     5     4     5   ar
     6     5     6    1
     7     5    24   ar
     8     6     7    2
     9     6     8   am
    10     8     9    1
    11     9    10    1
    12     9    11    1
    13    11    12    1
    14    12    13    1
    15    13    14   ar
    16    13    23   ar
    17    14    15   ar
    18    15    16   ar
    19    15    20   ar
    20    16    17   ar
    21    17    18   ar
    22    18    19   ar
    23    19    20   ar
    24    20    21   ar
    25    21    22    2
    26    21    23   ar
    27    24    25   ar
    28     1    26    1
    29     1    27    1
    30     3    28    1
    31     4    29    1
    32     8    30    1
    33     9    31    1
    34    10    32    1
    35    10    33    1
    36    10    34    1
    37    11    35    1
    38    11    36    1
    39    12    37    1
    40    12    38    1
    41    16    39    1
    42    17    40    1
    43    18    41    1
    44    19    42    1
    45    23    43    1
    46    24    44    1
    47    25    45    1
@<TRIPOS>MOLECULE
../data/bude_mols_rdkit_confs2/molecule_71.pdb
 45 47 0 0 0
SMALL
GASTEIGER

@<TRIPOS>ATOM
      1 N          -7.9490    0.2020   -1.0860 N.pl3   1  UNL1       -0.3580
      2 C          -6.5940   -0.1660   -0.8270 C.ar    1  UNL1        0.0246
      3 C          -6.1620   -1.4730   -0.8900 C.ar    1  UNL1       -0.0403
      4 C          -4.8390   -1.7980   -0.6330 C.ar    1  UNL1       -0.0479
      5 C          -3.9160   -0.8290   -0.3060 C.ar    1  UNL1        0.0370
      6 C          -2.5380   -1.2030   -0.0430 C.2     1  UNL1        0.2480
      7 O          -2.1940   -2.4190   -0.1150 O.2     1  UNL1       -0.2700
      8 N          -1.5380   -0.2690    0.2980 N.am    1  UNL1       -0.2709
      9 C          -0.1390   -0.6520    0.5650 C.3     1  UNL1        0.0458
     10 N           0.7140    0.0110   -0.4230 N.4     1  UNL1        0.2344
     11 C           0.1800   -0.1300    1.9230 C.3     1  UNL1        0.0149
     12 C           1.5170   -0.4060    2.4980 C.3     1  UNL1        0.0123
     13 C           2.6690    0.1060    1.7490 C.ar    1  UNL1        0.1106
     14 N           3.3520   -0.6390    0.8440 N.ar    1  UNL1       -0.2337
     15 C           4.4060   -0.1880    0.1520 C.ar    1  UNL1        0.0781
     16 C           5.0680   -0.9850   -0.7580 C.ar    1  UNL1       -0.0355
     17 C           6.1560   -0.4720   -1.4520 C.ar    1  UNL1       -0.0597
     18 C           6.5600    0.8350   -1.2190 C.ar    1  UNL1       -0.0609
     19 C           5.8790    1.6100   -0.3030 C.ar    1  UNL1       -0.0474
     20 C           4.7960    1.1180    0.3960 C.ar    1  UNL1        0.0647
     21 C           4.0950    1.8660    1.3170 C.ar    1  UNL1        0.2592
     22 O           4.4390    3.0590    1.5510 O.2     1  UNL1       -0.2672
     23 N           3.0420    1.3960    2.0010 N.ar    1  UNL1       -0.3103
     24 C          -4.3630    0.4670   -0.2470 C.ar    1  UNL1       -0.0479
     25 C          -5.6860    0.8120   -0.5030 C.ar    1  UNL1       -0.0403
     26 H          -8.6106   -0.4886   -1.3194 H       1  UNL1        0.1423
     27 H          -8.2217    1.1464   -1.0312 H       1  UNL1        0.1423
     28 H          -6.8321   -2.2197   -1.1317 H       1  UNL1        0.0636
     29 H          -4.5400   -2.7842   -0.6877 H       1  UNL1        0.0626
     30 H          -1.7850    0.6820    0.3607 H       1  UNL1        0.1543
     31 H           0.0120   -1.7098    0.5094 H       1  UNL1        0.1077
     32 H           0.5721    1.0198   -0.3723 H       1  UNL1        0.2013
     33 H           0.4726   -0.3198   -1.3572 H       1  UNL1        0.2013
     34 H           1.6916   -0.2051   -0.2279 H       1  UNL1        0.2013
     35 H          -0.5428   -0.5418    2.5959 H       1  UNL1        0.0342
     36 H           0.1651    0.9330    1.8015 H       1  UNL1        0.0342
     37 H           1.6250   -1.4677    2.5750 H       1  UNL1        0.0346
     38 H           1.5351    0.1113    3.4345 H       1  UNL1        0.0346
     39 H           4.7573   -1.9553   -0.9221 H       1  UNL1        0.0639
     40 H           6.6601   -1.0581   -2.1356 H       1  UNL1        0.0618
     41 H           7.3673    1.2260   -1.7293 H       1  UNL1        0.0618
     42 H           6.1870    2.5808   -0.1367 H       1  UNL1        0.0626
     43 H           2.5605    1.9539    2.6538 H       1  UNL1        0.1700
     44 H          -3.6929    1.2132   -0.0037 H       1  UNL1        0.0626
     45 H          -5.9839    1.7986   -0.4497 H       1  UNL1        0.0636
@<TRIPOS>UNITY_ATOM_ATTR
10 1
charge 1
@<TRIPOS>BOND
     1     1     2    1
     2     2     3   ar
     3     2    25   ar
     4     3     4   ar
     5     4     5   ar
     6     5     6    1
     7     5    24   ar
     8     6     7    2
     9     6     8   am
    10     8     9    1
    11     9    10    1
    12     9    11    1
    13    11    12    1
    14    12    13    1
    15    13    14   ar
    16    13    23   ar
    17    14    15   ar
    18    15    16   ar
    19    15    20   ar
    20    16    17   ar
    21    17    18   ar
    22    18    19   ar
    23    19    20   ar
    24    20    21   ar
    25    21    22    2
    26    21    23   ar
    27    24    25   ar
    28     1    26    1
    29     1    27    1
    30     3    28    1
    31     4    29    1
    32     8    30    1
    33     9    31    1
    34    10    32    1
    35    10    33    1
    36    10    34    1
    37    11    35    1
    38    11    36    1
    39    12    37    1
    40    12    38    1
    41    16    39    1
    42    17    40    1
    43    18    41    1
    44    19    42    1
    45    23    43    1
    46    24    44    1
    47    25    45    1
@<TRIPOS>MOLECULE
../data/bude_mols_rdkit_confs2/molecule_71.pdb
 45 47 0 0 0
SMALL
GASTEIGER

@<TRIPOS>ATOM
      1 N           8.1000    0.3940   -0.6670 N.pl3   1  UNL1       -0.3580
      2 C           6.7460    0.1760   -0.2680 C.ar    1  UNL1        0.0246
      3 C           6.4160   -0.2810    0.9920 C.ar    1  UNL1       -0.0403
      4 C           5.0990   -0.4850    1.3590 C.ar    1  UNL1       -0.0479
      5 C           4.0620   -0.2410    0.4840 C.ar    1  UNL1        0.0370
      6 C           2.6990   -0.4770    0.9360 C.2     1  UNL1        0.2480
      7 O           2.4600   -0.9020    2.1170 O.2     1  UNL1       -0.2700
      8 N           1.5500   -0.2650    0.1360 N.am    1  UNL1       -0.2709
      9 C           0.1780   -0.5230    0.6480 C.3     1  UNL1        0.0458
     10 N          -0.5720    0.7150    0.5650 N.4     1  UNL1        0.2344
     11 C          -0.4110   -1.5590   -0.2430 C.3     1  UNL1        0.0149
     12 C          -1.7580   -2.0680    0.0280 C.3     1  UNL1        0.0123
     13 C          -2.8510   -1.0690    0.0180 C.ar    1  UNL1        0.1106
     14 N          -3.4560   -0.7290   -1.1270 N.ar    1  UNL1       -0.2337
     15 C          -4.4690    0.1440   -1.1280 C.ar    1  UNL1        0.0781
     16 C          -5.1070    0.5060   -2.3140 C.ar    1  UNL1       -0.0355
     17 C          -6.1430    1.4020   -2.3000 C.ar    1  UNL1       -0.0597
     18 C          -6.5550    1.9450   -1.1120 C.ar    1  UNL1       -0.0609
     19 C          -5.9280    1.5930    0.0750 C.ar    1  UNL1       -0.0474
     20 C          -4.8880    0.6940    0.0630 C.ar    1  UNL1        0.0647
     21 C          -4.2560    0.3360    1.2390 C.ar    1  UNL1        0.2592
     22 O          -4.6280    0.8330    2.3520 O.2     1  UNL1       -0.2672
     23 N          -3.2520   -0.5360    1.1980 N.ar    1  UNL1       -0.3103
     24 C           4.3890    0.2140   -0.7700 C.ar    1  UNL1       -0.0479
     25 C           5.7100    0.4250   -1.1560 C.ar    1  UNL1       -0.0403
     26 H           8.8340    0.2167   -0.0353 H       1  UNL1        0.1423
     27 H           8.2993    0.7216   -1.5738 H       1  UNL1        0.1423
     28 H           7.1669   -0.4741    1.6731 H       1  UNL1        0.0636
     29 H           4.8873   -0.8276    2.3092 H       1  UNL1        0.0626
     30 H           1.6628    0.0626   -0.7855 H       1  UNL1        0.1543
     31 H           0.1683   -0.8592    1.6637 H       1  UNL1        0.1077
     32 H          -0.5718    1.0486   -0.3989 H       1  UNL1        0.2013
     33 H          -0.1397    1.4155    1.1673 H       1  UNL1        0.2013
     34 H          -1.5321    0.5518    0.8682 H       1  UNL1        0.2013
     35 H           0.2494   -2.4006   -0.2195 H       1  UNL1        0.0342
     36 H          -0.5198   -1.0509   -1.1784 H       1  UNL1        0.0342
     37 H          -1.7447   -2.5271    0.9944 H       1  UNL1        0.0346
     38 H          -1.9769   -2.7386   -0.7766 H       1  UNL1        0.0346
     39 H          -4.7964    0.0959   -3.2086 H       1  UNL1        0.0639
     40 H          -6.6111    1.6668   -3.1808 H       1  UNL1        0.0618
     41 H          -7.3359    2.6196   -1.0995 H       1  UNL1        0.0618
     42 H          -6.2425    2.0062    0.9668 H       1  UNL1        0.0626
     43 H          -2.7967   -0.7962    2.0312 H       1  UNL1        0.1700
     44 H           3.6332    0.4051   -1.4462 H       1  UNL1        0.0626
     45 H           5.9191    0.7680   -2.1066 H       1  UNL1        0.0636
@<TRIPOS>UNITY_ATOM_ATTR
10 1
charge 1
@<TRIPOS>BOND
     1     1     2    1
     2     2     3   ar
     3     2    25   ar
     4     3     4   ar
     5     4     5   ar
     6     5     6    1
     7     5    24   ar
     8     6     7    2
     9     6     8   am
    10     8     9    1
    11     9    10    1
    12     9    11    1
    13    11    12    1
    14    12    13    1
    15    13    14   ar
    16    13    23   ar
    17    14    15   ar
    18    15    16   ar
    19    15    20   ar
    20    16    17   ar
    21    17    18   ar
    22    18    19   ar
    23    19    20   ar
    24    20    21   ar
    25    21    22    2
    26    21    23   ar
    27    24    25   ar
    28     1    26    1
    29     1    27    1
    30     3    28    1
    31     4    29    1
    32     8    30    1
    33     9    31    1
    34    10    32    1
    35    10    33    1
    36    10    34    1
    37    11    35    1
    38    11    36    1
    39    12    37    1
    40    12    38    1
    41    16    39    1
    42    17    40    1
    43    18    41    1
    44    19    42    1
    45    23    43    1
    46    24    44    1
    47    25    45    1
@<TRIPOS>MOLECULE
../data/bude_mols_rdkit_confs2/molecule_71.pdb
 45 47 0 0 0
SMALL
GASTEIGER

@<TRIPOS>ATOM
      1 N          -7.3500    0.6890    1.9520 N.pl3   1  UNL1       -0.3580
      2 C          -6.1950    0.3770    1.2070 C.ar    1  UNL1        0.0246
      3 C          -6.1680   -0.8580    0.5800 C.ar    1  UNL1       -0.0403
      4 C          -5.0710   -1.1970   -0.1490 C.ar    1  UNL1       -0.0479
      5 C          -3.9680   -0.3840   -0.3080 C.ar    1  UNL1        0.0370
      6 C          -2.8310   -0.8210   -1.1060 C.2     1  UNL1        0.2480
      7 O          -2.8740   -1.9570   -1.6490 O.2     1  UNL1       -0.2700
      8 N          -1.6720   -0.0560   -1.3160 N.am    1  UNL1       -0.2709
      9 C          -0.5460   -0.5040   -2.1140 C.3     1  UNL1        0.0458
     10 N          -0.2850    0.3350   -3.2460 N.4     1  UNL1        0.2344
     11 C           0.7040   -0.6530   -1.2650 C.3     1  UNL1        0.0149
     12 C           1.1120    0.6280   -0.6180 C.3     1  UNL1        0.0123
     13 C           2.3490    0.3440    0.1840 C.ar    1  UNL1        0.1106
     14 N           3.5260    0.4890   -0.4390 N.ar    1  UNL1       -0.2337
     15 C           4.6720    0.2520    0.2170 C.ar    1  UNL1        0.0781
     16 C           5.9090    0.3960   -0.4070 C.ar    1  UNL1       -0.0355
     17 C           7.1020    0.1610    0.2380 C.ar    1  UNL1       -0.0597
     18 C           7.0490   -0.2350    1.5620 C.ar    1  UNL1       -0.0609
     19 C           5.8560   -0.3940    2.2280 C.ar    1  UNL1       -0.0474
     20 C           4.6880   -0.1470    1.5450 C.ar    1  UNL1        0.0647
     21 C           3.4420   -0.2790    2.1290 C.ar    1  UNL1        0.2592
     22 O           3.3870   -0.6390    3.3330 O.2     1  UNL1       -0.2672
     23 N           2.3080   -0.0360    1.4520 N.ar    1  UNL1       -0.3103
     24 C          -4.0160    0.8410    0.3250 C.ar    1  UNL1       -0.0479
     25 C          -5.1160    1.2130    1.0720 C.ar    1  UNL1       -0.0403
     26 H          -8.0897    0.0417    2.0076 H       1  UNL1        0.1423
     27 H          -7.4171    1.5543    2.4168 H       1  UNL1        0.1423
     28 H          -6.9649   -1.5083    0.6644 H       1  UNL1        0.0636
     29 H          -5.0633   -2.1194   -0.6118 H       1  UNL1        0.0626
     30 H          -1.6207    0.8341   -0.8984 H       1  UNL1        0.1543
     31 H          -0.8224   -1.4635   -2.4986 H       1  UNL1        0.1077
     32 H          -0.0163    1.2652   -2.9250 H       1  UNL1        0.2013
     33 H          -1.1255    0.4029   -3.8198 H       1  UNL1        0.2013
     34 H           0.4726   -0.0659   -3.7989 H       1  UNL1        0.2013
     35 H           1.5042   -0.9921   -1.8892 H       1  UNL1        0.0342
     36 H           0.4867   -1.3550   -0.4872 H       1  UNL1        0.0342
     37 H           0.3314    0.9798    0.0237 H       1  UNL1        0.0346
     38 H           1.2999    1.3826   -1.3530 H       1  UNL1        0.0346
     39 H           5.9320    0.6916   -1.3955 H       1  UNL1        0.0639
     40 H           8.0044    0.2763   -0.2493 H       1  UNL1        0.0618
     41 H           7.9313   -0.4167    2.0656 H       1  UNL1        0.0618
     42 H           5.8378   -0.6914    3.2161 H       1  UNL1        0.0626
     43 H           1.4388   -0.1412    1.9021 H       1  UNL1        0.1700
     44 H          -3.2175    1.4891    0.2388 H       1  UNL1        0.0626
     45 H          -5.1265    2.1347    1.5361 H       1  UNL1        0.0636
@<TRIPOS>UNITY_ATOM_ATTR
10 1
charge 1
@<TRIPOS>BOND
     1     1     2    1
     2     2     3   ar
     3     2    25   ar
     4     3     4   ar
     5     4     5   ar
     6     5     6    1
     7     5    24   ar
     8     6     7    2
     9     6     8   am
    10     8     9    1
    11     9    10    1
    12     9    11    1
    13    11    12    1
    14    12    13    1
    15    13    14   ar
    16    13    23   ar
    17    14    15   ar
    18    15    16   ar
    19    15    20   ar
    20    16    17   ar
    21    17    18   ar
    22    18    19   ar
    23    19    20   ar
    24    20    21   ar
    25    21    22    2
    26    21    23   ar
    27    24    25   ar
    28     1    26    1
    29     1    27    1
    30     3    28    1
    31     4    29    1
    32     8    30    1
    33     9    31    1
    34    10    32    1
    35    10    33    1
    36    10    34    1
    37    11    35    1
    38    11    36    1
    39    12    37    1
    40    12    38    1
    41    16    39    1
    42    17    40    1
    43    18    41    1
    44    19    42    1
    45    23    43    1
    46    24    44    1
    47    25    45    1
@<TRIPOS>MOLECULE
../data/bude_mols_rdkit_confs2/molecule_71.pdb
 45 47 0 0 0
SMALL
GASTEIGER

@<TRIPOS>ATOM
      1 N           7.4890    1.6270    0.8440 N.pl3   1  UNL1       -0.3580
      2 C           6.1170    1.2780    0.5850 C.ar    1  UNL1        0.0246
      3 C           5.1980    2.2280    0.2450 C.ar    1  UNL1       -0.0403
      4 C           3.8770    1.8800   -0.0020 C.ar    1  UNL1       -0.0479
      5 C           3.4490    0.5570    0.0880 C.ar    1  UNL1        0.0370
      6 C           2.0540    0.2850   -0.1870 C.2     1  UNL1        0.2480
      7 O           1.2320    1.1880   -0.4980 O.2     1  UNL1       -0.2700
      8 N           1.5780   -1.0360   -0.1080 N.am    1  UNL1       -0.2709
      9 C           0.1800   -1.3870   -0.3720 C.3     1  UNL1        0.0458
     10 N           0.0680   -2.2670   -1.4980 N.4     1  UNL1        0.2344
     11 C          -0.3820   -1.9240    0.8940 C.3     1  UNL1        0.0149
     12 C          -1.7910   -2.3500    0.8730 C.3     1  UNL1        0.0123
     13 C          -2.7770   -1.3220    0.5370 C.ar    1  UNL1        0.1106
     14 N          -2.4980   -0.0430    0.2570 N.ar    1  UNL1       -0.2337
     15 C          -3.5060    0.7930   -0.0340 C.ar    1  UNL1        0.0781
     16 C          -3.2760    2.1390   -0.3350 C.ar    1  UNL1       -0.0355
     17 C          -4.3150    3.0000   -0.6350 C.ar    1  UNL1       -0.0597
     18 C          -5.6070    2.5650   -0.6490 C.ar    1  UNL1       -0.0609
     19 C          -5.8620    1.2450   -0.3580 C.ar    1  UNL1       -0.0474
     20 C          -4.8350    0.4050   -0.0630 C.ar    1  UNL1        0.0647
     21 C          -5.0950   -0.9090    0.2270 C.ar    1  UNL1        0.2592
     22 O          -6.2880   -1.3310    0.2180 O.2     1  UNL1       -0.2672
     23 N          -4.0680   -1.7060    0.5110 N.ar    1  UNL1       -0.3103
     24 C           4.3940   -0.3740    0.4310 C.ar    1  UNL1       -0.0479
     25 C           5.7130   -0.0390    0.6800 C.ar    1  UNL1       -0.0403
     26 H           7.7793    2.5653    0.7769 H       1  UNL1        0.1423
     27 H           8.1372    0.9274    1.0883 H       1  UNL1        0.1423
     28 H           5.4882    3.2156    0.1707 H       1  UNL1        0.0636
     29 H           3.1991    2.6151   -0.2571 H       1  UNL1        0.0626
     30 H           2.2083   -1.7525    0.1340 H       1  UNL1        0.1543
     31 H          -0.3975   -0.5330   -0.6585 H       1  UNL1        0.1077
     32 H           0.5941   -3.1215   -1.3153 H       1  UNL1        0.2013
     33 H           0.4435   -1.8073   -2.3275 H       1  UNL1        0.2013
     34 H          -0.9133   -2.4984   -1.6524 H       1  UNL1        0.2013
     35 H          -0.2866   -1.1614    1.6384 H       1  UNL1        0.0342
     36 H           0.1750   -2.8167    1.0882 H       1  UNL1        0.0342
     37 H          -2.0317   -2.7265    1.8452 H       1  UNL1        0.0346
     38 H          -1.8571   -3.0744    0.0882 H       1  UNL1        0.0346
     39 H          -2.3084    2.4978   -0.3331 H       1  UNL1        0.0639
     40 H          -4.1094    3.9878   -0.8518 H       1  UNL1        0.0618
     41 H          -6.3782    3.2130   -0.8734 H       1  UNL1        0.0618
     42 H          -6.8320    0.8929   -0.3637 H       1  UNL1        0.0626
     43 H          -4.2667   -2.6478    0.7178 H       1  UNL1        0.1700
     44 H           4.1109   -1.3635    0.5065 H       1  UNL1        0.0626
     45 H           6.3933   -0.7716    0.9361 H       1  UNL1        0.0636
@<TRIPOS>UNITY_ATOM_ATTR
10 1
charge 1
@<TRIPOS>BOND
     1     1     2    1
     2     2     3   ar
     3     2    25   ar
     4     3     4   ar
     5     4     5   ar
     6     5     6    1
     7     5    24   ar
     8     6     7    2
     9     6     8   am
    10     8     9    1
    11     9    10    1
    12     9    11    1
    13    11    12    1
    14    12    13    1
    15    13    14   ar
    16    13    23   ar
    17    14    15   ar
    18    15    16   ar
    19    15    20   ar
    20    16    17   ar
    21    17    18   ar
    22    18    19   ar
    23    19    20   ar
    24    20    21   ar
    25    21    22    2
    26    21    23   ar
    27    24    25   ar
    28     1    26    1
    29     1    27    1
    30     3    28    1
    31     4    29    1
    32     8    30    1
    33     9    31    1
    34    10    32    1
    35    10    33    1
    36    10    34    1
    37    11    35    1
    38    11    36    1
    39    12    37    1
    40    12    38    1
    41    16    39    1
    42    17    40    1
    43    18    41    1
    44    19    42    1
    45    23    43    1
    46    24    44    1
    47    25    45    1
@<TRIPOS>MOLECULE
../data/bude_mols_rdkit_confs2/molecule_71.pdb
 45 47 0 0 0
SMALL
GASTEIGER

@<TRIPOS>ATOM
      1 N           6.2160    2.4890   -0.8620 N.pl3   1  UNL1       -0.3580
      2 C           5.0110    1.7270   -0.6860 C.ar    1  UNL1        0.0246
      3 C           4.8030    1.0330    0.4760 C.ar    1  UNL1       -0.0403
      4 C           3.6190    0.2980    0.6220 C.ar    1  UNL1       -0.0479
      5 C           2.6910    0.2750   -0.3750 C.ar    1  UNL1        0.0370
      6 C           1.4730   -0.4780   -0.2310 C.2     1  UNL1        0.2480
      7 O           0.6370   -0.4830   -1.1670 O.2     1  UNL1       -0.2700
      8 N           1.2120   -1.2070    0.9480 N.am    1  UNL1       -0.2709
      9 C          -0.0660   -1.9500    1.0050 C.3     1  UNL1        0.0458
     10 N           0.2940   -3.3590    1.1420 N.4     1  UNL1        0.2344
     11 C          -0.7820   -1.4460    2.2040 C.3     1  UNL1        0.0149
     12 C          -1.0440    0.0230    2.1210 C.3     1  UNL1        0.0123
     13 C          -1.9340    0.3270    0.9850 C.ar    1  UNL1        0.1106
     14 N          -2.5060   -0.5740    0.1800 N.ar    1  UNL1       -0.2337
     15 C          -3.3070   -0.3300   -0.8460 C.ar    1  UNL1        0.0781
     16 C          -3.8720   -1.3010   -1.6470 C.ar    1  UNL1       -0.0355
     17 C          -4.7040   -1.0150   -2.7090 C.ar    1  UNL1       -0.0597
     18 C          -4.9660    0.3160   -2.9580 C.ar    1  UNL1       -0.0609
     19 C          -4.4090    1.3120   -2.1660 C.ar    1  UNL1       -0.0474
     20 C          -3.5900    1.0100   -1.1210 C.ar    1  UNL1        0.0647
     21 C          -3.0150    1.9640   -0.3090 C.ar    1  UNL1        0.2592
     22 O          -3.2580    3.1860   -0.5410 O.2     1  UNL1       -0.2672
     23 N          -2.2120    1.6450    0.7140 N.ar    1  UNL1       -0.3103
     24 C           2.9160    0.9850   -1.5490 C.ar    1  UNL1       -0.0479
     25 C           4.0720    1.7030   -1.6920 C.ar    1  UNL1       -0.0403
     26 H           6.8929    2.5116   -0.1475 H       1  UNL1        0.1423
     27 H           6.3649    2.9886   -1.6971 H       1  UNL1        0.1423
     28 H           5.5061    1.0510    1.2312 H       1  UNL1        0.0636
     29 H           3.4486   -0.2303    1.4920 H       1  UNL1        0.0626
     30 H           1.8502   -1.2207    1.6975 H       1  UNL1        0.1543
     31 H          -0.6916   -1.8276    0.1456 H       1  UNL1        0.1077
     32 H           0.8906   -3.4795    1.9605 H       1  UNL1        0.2013
     33 H           0.7954   -3.6645    0.3079 H       1  UNL1        0.2013
     34 H          -0.5526   -3.9170    1.2532 H       1  UNL1        0.2013
     35 H          -0.1861   -1.6425    3.0707 H       1  UNL1        0.0342
     36 H          -1.7252   -1.9480    2.2620 H       1  UNL1        0.0342
     37 H          -0.1160    0.5390    1.9888 H       1  UNL1        0.0346
     38 H          -1.5181    0.3410    3.0260 H       1  UNL1        0.0346
     39 H          -3.6616   -2.2902   -1.4412 H       1  UNL1        0.0639
     40 H          -5.1121   -1.7631   -3.2911 H       1  UNL1        0.0618
     41 H          -5.5839    0.5753   -3.7429 H       1  UNL1        0.0618
     42 H          -4.6201    2.3006   -2.3738 H       1  UNL1        0.0626
     43 H          -1.8206    2.3552    1.2722 H       1  UNL1        0.1700
     44 H           2.2161    0.9706   -2.3072 H       1  UNL1        0.0626
     45 H           4.2413    2.2314   -2.5622 H       1  UNL1        0.0636
@<TRIPOS>UNITY_ATOM_ATTR
10 1
charge 1
@<TRIPOS>BOND
     1     1     2    1
     2     2     3   ar
     3     2    25   ar
     4     3     4   ar
     5     4     5   ar
     6     5     6    1
     7     5    24   ar
     8     6     7    2
     9     6     8   am
    10     8     9    1
    11     9    10    1
    12     9    11    1
    13    11    12    1
    14    12    13    1
    15    13    14   ar
    16    13    23   ar
    17    14    15   ar
    18    15    16   ar
    19    15    20   ar
    20    16    17   ar
    21    17    18   ar
    22    18    19   ar
    23    19    20   ar
    24    20    21   ar
    25    21    22    2
    26    21    23   ar
    27    24    25   ar
    28     1    26    1
    29     1    27    1
    30     3    28    1
    31     4    29    1
    32     8    30    1
    33     9    31    1
    34    10    32    1
    35    10    33    1
    36    10    34    1
    37    11    35    1
    38    11    36    1
    39    12    37    1
    40    12    38    1
    41    16    39    1
    42    17    40    1
    43    18    41    1
    44    19    42    1
    45    23    43    1
    46    24    44    1
    47    25    45    1
@<TRIPOS>MOLECULE
../data/bude_mols_rdkit_confs2/molecule_71.pdb
 45 47 0 0 0
SMALL
GASTEIGER

@<TRIPOS>ATOM
      1 N           7.9070   -1.5960   -1.0370 N.pl3   1  UNL1       -0.3580
      2 C           6.6690   -1.0360   -0.6040 C.ar    1  UNL1        0.0246
      3 C           5.6750   -0.6760   -1.4890 C.ar    1  UNL1       -0.0403
      4 C           4.4610   -0.1270   -1.0600 C.ar    1  UNL1       -0.0479
      5 C           4.2240    0.0730    0.2820 C.ar    1  UNL1        0.0370
      6 C           2.9930    0.6360    0.8060 C.2     1  UNL1        0.2480
      7 O           2.8470    0.7890    2.0450 O.2     1  UNL1       -0.2700
      8 N           1.9190    1.0340   -0.0260 N.am    1  UNL1       -0.2709
      9 C           0.7020    1.5900    0.4820 C.3     1  UNL1        0.0458
     10 N           0.4110    2.9020   -0.0020 N.4     1  UNL1        0.2344
     11 C          -0.4380    0.6480    0.1260 C.3     1  UNL1        0.0149
     12 C          -1.6950    1.2720    0.6790 C.3     1  UNL1        0.0123
     13 C          -2.8350    0.3710    0.3510 C.ar    1  UNL1        0.1106
     14 N          -4.1050    0.6910    0.7260 N.ar    1  UNL1       -0.2337
     15 C          -5.1710   -0.0810    0.4600 C.ar    1  UNL1        0.0781
     16 C          -6.4510    0.2540    0.8440 C.ar    1  UNL1       -0.0355
     17 C          -7.5400   -0.5490    0.5650 C.ar    1  UNL1       -0.0597
     18 C          -7.3670   -1.7370   -0.1230 C.ar    1  UNL1       -0.0609
     19 C          -6.0830   -2.0760   -0.5100 C.ar    1  UNL1       -0.0474
     20 C          -5.0020   -1.2620   -0.2240 C.ar    1  UNL1        0.0647
     21 C          -3.7160   -1.5800   -0.5990 C.ar    1  UNL1        0.2592
     22 O          -3.5360   -2.6560   -1.2260 O.2     1  UNL1       -0.2672
     23 N          -2.6560   -0.7790   -0.3170 N.ar    1  UNL1       -0.3103
     24 C           5.2370   -0.2960    1.1580 C.ar    1  UNL1       -0.0479
     25 C           6.4350   -0.8370    0.7440 C.ar    1  UNL1       -0.0403
     26 H           8.0742   -1.7379   -1.9968 H       1  UNL1        0.1423
     27 H           8.5945   -1.8407   -0.3762 H       1  UNL1        0.1423
     28 H           5.8309   -0.8157   -2.4995 H       1  UNL1        0.0636
     29 H           3.7400    0.1292   -1.7525 H       1  UNL1        0.0626
     30 H           2.0137    0.9231   -0.9996 H       1  UNL1        0.1543
     31 H           0.8193    1.6918    1.5407 H       1  UNL1        0.1077
     32 H           0.2872    2.8714   -1.0140 H       1  UNL1        0.2013
     33 H           1.1830    3.5280    0.2273 H       1  UNL1        0.2013
     34 H          -0.4450    3.2436    0.4351 H       1  UNL1        0.2013
     35 H          -0.2761   -0.3126    0.5686 H       1  UNL1        0.0342
     36 H          -0.5083    0.5069   -0.9323 H       1  UNL1        0.0342
     37 H          -1.8506    2.2324    0.2336 H       1  UNL1        0.0346
     38 H          -1.6133    1.3998    1.7382 H       1  UNL1        0.0346
     39 H          -6.6016    1.1360    1.3582 H       1  UNL1        0.0639
     40 H          -8.4834   -0.2625    0.8700 H       1  UNL1        0.0618
     41 H          -8.1688   -2.3494   -0.3401 H       1  UNL1        0.0618
     42 H          -5.9280   -2.9572   -1.0243 H       1  UNL1        0.0626
     43 H          -1.7521   -1.0433   -0.6040 H       1  UNL1        0.1700
     44 H           5.0849   -0.1581    2.1694 H       1  UNL1        0.0626
     45 H           7.1549   -1.0927    1.4378 H       1  UNL1        0.0636
@<TRIPOS>UNITY_ATOM_ATTR
10 1
charge 1
@<TRIPOS>BOND
     1     1     2    1
     2     2     3   ar
     3     2    25   ar
     4     3     4   ar
     5     4     5   ar
     6     5     6    1
     7     5    24   ar
     8     6     7    2
     9     6     8   am
    10     8     9    1
    11     9    10    1
    12     9    11    1
    13    11    12    1
    14    12    13    1
    15    13    14   ar
    16    13    23   ar
    17    14    15   ar
    18    15    16   ar
    19    15    20   ar
    20    16    17   ar
    21    17    18   ar
    22    18    19   ar
    23    19    20   ar
    24    20    21   ar
    25    21    22    2
    26    21    23   ar
    27    24    25   ar
    28     1    26    1
    29     1    27    1
    30     3    28    1
    31     4    29    1
    32     8    30    1
    33     9    31    1
    34    10    32    1
    35    10    33    1
    36    10    34    1
    37    11    35    1
    38    11    36    1
    39    12    37    1
    40    12    38    1
    41    16    39    1
    42    17    40    1
    43    18    41    1
    44    19    42    1
    45    23    43    1
    46    24    44    1
    47    25    45    1
@<TRIPOS>MOLECULE
../data/bude_mols_rdkit_confs2/molecule_71.pdb
 45 47 0 0 0
SMALL
GASTEIGER

@<TRIPOS>ATOM
      1 N          -6.2670   -1.3150   -2.5840 N.pl3   1  UNL1       -0.3580
      2 C          -5.3100   -0.7910   -1.6590 C.ar    1  UNL1        0.0246
      3 C          -3.9550   -0.8460   -1.9030 C.ar    1  UNL1       -0.0403
      4 C          -3.0310   -0.3310   -0.9920 C.ar    1  UNL1       -0.0479
      5 C          -3.4170    0.2550    0.1880 C.ar    1  UNL1        0.0370
      6 C          -2.4890    0.8060    1.1670 C.2     1  UNL1        0.2480
      7 O          -2.9330    1.3310    2.2410 O.2     1  UNL1       -0.2700
      8 N          -1.1080    0.7920    0.9940 N.am    1  UNL1       -0.2709
      9 C          -0.1410    1.3220    1.9280 C.3     1  UNL1        0.0458
     10 N           0.7470    0.3860    2.5100 N.4     1  UNL1        0.2344
     11 C           0.5930    2.5220    1.3870 C.3     1  UNL1        0.0149
     12 C           1.3430    2.3010    0.1500 C.3     1  UNL1        0.0123
     13 C           2.4050    1.3150    0.1030 C.ar    1  UNL1        0.1106
     14 N           2.0790    0.0640   -0.2760 N.ar    1  UNL1       -0.2337
     15 C           2.9500   -0.9360   -0.3640 C.ar    1  UNL1        0.0781
     16 C           2.5660   -2.1900   -0.7540 C.ar    1  UNL1       -0.0355
     17 C           3.4770   -3.2110   -0.8390 C.ar    1  UNL1       -0.0597
     18 C           4.8020   -2.9410   -0.5190 C.ar    1  UNL1       -0.0609
     19 C           5.2130   -1.6980   -0.1260 C.ar    1  UNL1       -0.0474
     20 C           4.2650   -0.6780   -0.0480 C.ar    1  UNL1        0.0647
     21 C           4.6020    0.5830    0.3350 C.ar    1  UNL1        0.2592
     22 O           5.8180    0.8010    0.6220 O.2     1  UNL1       -0.2672
     23 N           3.6900    1.5410    0.4040 N.ar    1  UNL1       -0.3103
     24 C          -4.7980    0.3010    0.4160 C.ar    1  UNL1       -0.0479
     25 C          -5.7130   -0.2050   -0.4780 C.ar    1  UNL1       -0.0403
     26 H          -5.9638   -1.7306   -3.4234 H       1  UNL1        0.1423
     27 H          -7.2288   -1.2600   -2.3813 H       1  UNL1        0.1423
     28 H          -3.6161   -1.2769   -2.7774 H       1  UNL1        0.0636
     29 H          -2.0248   -0.3928   -1.2128 H       1  UNL1        0.0626
     30 H          -0.7610    0.3873    0.1663 H       1  UNL1        0.1543
     31 H          -0.7535    1.6409    2.7453 H       1  UNL1        0.1077
     32 H           1.3771    0.0245    1.7940 H       1  UNL1        0.2013
     33 H           0.2131   -0.3839    2.9133 H       1  UNL1        0.2013
     34 H           1.2907    0.8429    3.2421 H       1  UNL1        0.2013
     35 H           1.2830    2.8507    2.1358 H       1  UNL1        0.0342
     36 H          -0.1612    3.2420    1.1468 H       1  UNL1        0.0342
     37 H           1.7835    3.2397   -0.1141 H       1  UNL1        0.0346
     38 H           0.6059    1.8946   -0.5106 H       1  UNL1        0.0346
     39 H           1.5769   -2.3698   -0.9874 H       1  UNL1        0.0639
     40 H           3.1860   -4.1564   -1.1333 H       1  UNL1        0.0618
     41 H           5.4966   -3.7018   -0.5799 H       1  UNL1        0.0618
     42 H           6.2020   -1.5184    0.1076 H       1  UNL1        0.0626
     43 H           3.9644    2.4440    0.6843 H       1  UNL1        0.1700
     44 H          -5.1426    0.7312    1.2885 H       1  UNL1        0.0626
     45 H          -6.7200   -0.1448   -0.2605 H       1  UNL1        0.0636
@<TRIPOS>UNITY_ATOM_ATTR
10 1
charge 1
@<TRIPOS>BOND
     1     1     2    1
     2     2     3   ar
     3     2    25   ar
     4     3     4   ar
     5     4     5   ar
     6     5     6    1
     7     5    24   ar
     8     6     7    2
     9     6     8   am
    10     8     9    1
    11     9    10    1
    12     9    11    1
    13    11    12    1
    14    12    13    1
    15    13    14   ar
    16    13    23   ar
    17    14    15   ar
    18    15    16   ar
    19    15    20   ar
    20    16    17   ar
    21    17    18   ar
    22    18    19   ar
    23    19    20   ar
    24    20    21   ar
    25    21    22    2
    26    21    23   ar
    27    24    25   ar
    28     1    26    1
    29     1    27    1
    30     3    28    1
    31     4    29    1
    32     8    30    1
    33     9    31    1
    34    10    32    1
    35    10    33    1
    36    10    34    1
    37    11    35    1
    38    11    36    1
    39    12    37    1
    40    12    38    1
    41    16    39    1
    42    17    40    1
    43    18    41    1
    44    19    42    1
    45    23    43    1
    46    24    44    1
    47    25    45    1
@<TRIPOS>MOLECULE
../data/bude_mols_rdkit_confs2/molecule_71.pdb
 45 47 0 0 0
SMALL
GASTEIGER

@<TRIPOS>ATOM
      1 N           6.5760    3.1350   -0.3650 N.pl3   1  UNL1       -0.3580
      2 C           5.4990    2.2030   -0.2230 C.ar    1  UNL1        0.0246
      3 C           5.5000    1.2780    0.8050 C.ar    1  UNL1       -0.0403
      4 C           4.4580    0.3860    0.9320 C.ar    1  UNL1       -0.0479
      5 C           3.3790    0.3580    0.0680 C.ar    1  UNL1        0.0370
      6 C           2.2990   -0.6200    0.2680 C.2     1  UNL1        0.2480
      7 O           2.3140   -1.2480    1.3580 O.2     1  UNL1       -0.2700
      8 N           1.2820   -0.8760   -0.6790 N.am    1  UNL1       -0.2709
      9 C           0.1840   -1.7800   -0.5820 C.3     1  UNL1        0.0458
     10 N           0.2730   -2.9260   -1.4400 N.4     1  UNL1        0.2344
     11 C          -0.2210   -2.0940    0.8200 C.3     1  UNL1        0.0149
     12 C          -0.6700   -0.8820    1.5530 C.3     1  UNL1        0.0123
     13 C          -1.8570   -0.2970    0.8520 C.ar    1  UNL1        0.1106
     14 N          -3.0520   -0.8090    1.2010 N.ar    1  UNL1       -0.2337
     15 C          -4.1890   -0.3590    0.6710 C.ar    1  UNL1        0.0781
     16 C          -5.4270   -0.8700    1.0140 C.ar    1  UNL1       -0.0355
     17 C          -6.5800   -0.3770    0.4410 C.ar    1  UNL1       -0.0597
     18 C          -6.4860    0.6340   -0.4810 C.ar    1  UNL1       -0.0609
     19 C          -5.2550    1.1380   -0.8190 C.ar    1  UNL1       -0.0474
     20 C          -4.0740    0.6620   -0.2590 C.ar    1  UNL1        0.0647
     21 C          -2.8590    1.1760   -0.6080 C.ar    1  UNL1        0.2592
     22 O          -2.7440    2.0940   -1.4430 O.2     1  UNL1       -0.2672
     23 N          -1.7340    0.6870   -0.0420 N.ar    1  UNL1       -0.3103
     24 C           3.3830    1.2780   -0.9500 C.ar    1  UNL1       -0.0479
     25 C           4.4350    2.1940   -1.0950 C.ar    1  UNL1       -0.0403
     26 H           7.3262    3.1211    0.2723 H       1  UNL1        0.1423
     27 H           6.5665    3.7899   -1.1000 H       1  UNL1        0.1423
     28 H           6.2823    1.2559    1.4778 H       1  UNL1        0.0636
     29 H           4.4840   -0.2932    1.7085 H       1  UNL1        0.0626
     30 H           1.3393   -0.3620   -1.5167 H       1  UNL1        0.1543
     31 H          -0.6405   -1.2286   -0.9833 H       1  UNL1        0.1077
     32 H           1.0421   -3.5216   -1.1331 H       1  UNL1        0.2013
     33 H           0.4410   -2.6208   -2.3987 H       1  UNL1        0.2013
     34 H          -0.6008   -3.4506   -1.3984 H       1  UNL1        0.2013
     35 H           0.6154   -2.5191    1.3345 H       1  UNL1        0.0342
     36 H          -1.0408   -2.7805    0.7819 H       1  UNL1        0.0342
     37 H           0.1224   -0.1633    1.5764 H       1  UNL1        0.0346
     38 H          -0.9368   -1.1451    2.5553 H       1  UNL1        0.0346
     39 H          -5.4889   -1.6309    1.7084 H       1  UNL1        0.0639
     40 H          -7.5007   -0.7632    0.7021 H       1  UNL1        0.0618
     41 H          -7.3390    1.0149   -0.9196 H       1  UNL1        0.0618
     42 H          -5.2036    1.8986   -1.5146 H       1  UNL1        0.0626
     43 H          -0.8491    1.0458   -0.2818 H       1  UNL1        0.1700
     44 H           2.5986    1.2962   -1.6203 H       1  UNL1        0.0626
     45 H           4.4105    2.8743   -1.8706 H       1  UNL1        0.0636
@<TRIPOS>UNITY_ATOM_ATTR
10 1
charge 1
@<TRIPOS>BOND
     1     1     2    1
     2     2     3   ar
     3     2    25   ar
     4     3     4   ar
     5     4     5   ar
     6     5     6    1
     7     5    24   ar
     8     6     7    2
     9     6     8   am
    10     8     9    1
    11     9    10    1
    12     9    11    1
    13    11    12    1
    14    12    13    1
    15    13    14   ar
    16    13    23   ar
    17    14    15   ar
    18    15    16   ar
    19    15    20   ar
    20    16    17   ar
    21    17    18   ar
    22    18    19   ar
    23    19    20   ar
    24    20    21   ar
    25    21    22    2
    26    21    23   ar
    27    24    25   ar
    28     1    26    1
    29     1    27    1
    30     3    28    1
    31     4    29    1
    32     8    30    1
    33     9    31    1
    34    10    32    1
    35    10    33    1
    36    10    34    1
    37    11    35    1
    38    11    36    1
    39    12    37    1
    40    12    38    1
    41    16    39    1
    42    17    40    1
    43    18    41    1
    44    19    42    1
    45    23    43    1
    46    24    44    1
    47    25    45    1
