@<TRIPOS>MOLECULE
../data/bude_mols_rdkit_confs2/molecule_23.pdb
 31 33 0 0 0
SMALL
GASTEIGER

@<TRIPOS>ATOM
      1  N1         0.3490    3.0590    0.4820 N.pl3   1  UNL1       -0.3510
      2  C1        -0.6640    2.1510    0.0660 C.ar    1  UNL1        0.1323
      3  C2        -0.6040    0.8400    0.4910 C.ar    1  UNL1        0.0701
      4  N2         0.4190    0.3320    1.3290 N.pl3   1  UNL1       -0.3123
      5  C3         1.6080   -0.2160    0.7240 C.ar    1  UNL1        0.0314
      6  C4         1.7410   -0.2440   -0.6470 C.ar    1  UNL1       -0.0405
      7  C5         2.8920   -0.7750   -1.2290 C.ar    1  UNL1       -0.0600
      8  C6         3.9100   -1.2790   -0.4160 C.ar    1  UNL1       -0.0616
      9  C7         3.7900   -1.2580    0.9590 C.ar    1  UNL1       -0.0600
     10  C8         2.6330   -0.7230    1.4880 C.ar    1  UNL1       -0.0405
     11  C9        -1.5920   -0.0260    0.0800 C.ar    1  UNL1        0.0405
     12  C10       -1.6020   -1.3670    0.4670 C.ar    1  UNL1       -0.0492
     13  C11       -2.6000   -2.2230    0.0460 C.ar    1  UNL1       -0.0609
     14  C12       -3.5800   -1.7150   -0.7630 C.ar    1  UNL1       -0.0582
     15  C13       -3.5830   -0.3760   -1.1580 C.ar    1  UNL1       -0.0186
     16  C14       -2.5840    0.4790   -0.7360 C.ar    1  UNL1        0.1409
     17  O1        -2.5850    1.7380   -1.1060 O.2     1  UNL1       -0.4208
     18  C15       -1.6770    2.6080   -0.7500 C.ar    1  UNL1        0.3601
     19  O2        -1.7040    3.8170   -1.1230 O.2     1  UNL1       -0.2430
     20 H           1.0793    2.7485    1.0647 H       1  UNL1        0.1426
     21 H           0.3198    3.9979    0.1872 H       1  UNL1        0.1426
     22 H           0.3199    0.3527    2.3083 H       1  UNL1        0.1522
     23 H           0.9870    0.1289   -1.2449 H       1  UNL1        0.0636
     24 H           2.9911   -0.7954   -2.2560 H       1  UNL1        0.0618
     25 H           4.7611   -1.6713   -0.8481 H       1  UNL1        0.0618
     26 H           4.5366   -1.6280    1.5679 H       1  UNL1        0.0618
     27 H           2.5313   -0.7022    2.5148 H       1  UNL1        0.0636
     28 H          -0.8510   -1.7245    1.0779 H       1  UNL1        0.0625
     29 H          -2.6068   -3.2145    0.3323 H       1  UNL1        0.0618
     30 H          -4.3358   -2.3374   -1.0893 H       1  UNL1        0.0619
     31 H          -4.3362   -0.0231   -1.7689 H       1  UNL1        0.0654
@<TRIPOS>BOND
     1     1     2    1
     2     2     3   ar
     3     2    18   ar
     4     3     4    1
     5     3    11   ar
     6     4     5    1
     7     5     6   ar
     8     5    10   ar
     9     6     7   ar
    10     7     8   ar
    11     8     9   ar
    12     9    10   ar
    13    11    12   ar
    14    11    16   ar
    15    12    13   ar
    16    13    14   ar
    17    14    15   ar
    18    15    16   ar
    19    16    17   ar
    20    17    18   ar
    21    18    19    2
    22     1    20    1
    23     1    21    1
    24     4    22    1
    25     6    23    1
    26     7    24    1
    27     8    25    1
    28     9    26    1
    29    10    27    1
    30    12    28    1
    31    13    29    1
    32    14    30    1
    33    15    31    1
@<TRIPOS>MOLECULE
../data/bude_mols_rdkit_confs2/molecule_23.pdb
 31 33 0 0 0
SMALL
GASTEIGER

@<TRIPOS>ATOM
      1  N1         0.0050   -2.9800   -0.7610 N.pl3   1  UNL1       -0.3510
      2  C1        -0.8760   -1.8920   -0.6790 C.ar    1  UNL1        0.1323
      3  C2        -0.6920   -0.8400    0.2060 C.ar    1  UNL1        0.0701
      4  N2         0.4340   -0.8600    1.0680 N.pl3   1  UNL1       -0.3123
      5  C3         1.6250   -0.2670    0.6160 C.ar    1  UNL1        0.0314
      6  C4         1.7320    0.3260   -0.6230 C.ar    1  UNL1       -0.0405
      7  C5         2.9080    0.9050   -1.0530 C.ar    1  UNL1       -0.0600
      8  C6         4.0220    0.9060   -0.2480 C.ar    1  UNL1       -0.0616
      9  C7         3.9390    0.3190    0.9950 C.ar    1  UNL1       -0.0600
     10  C8         2.7510   -0.2510    1.3970 C.ar    1  UNL1       -0.0405
     11  C9        -1.6150    0.1750    0.2040 C.ar    1  UNL1        0.0405
     12  C10       -1.4340    1.2110    1.0760 C.ar    1  UNL1       -0.0492
     13  C11       -2.3170    2.2490    1.1210 C.ar    1  UNL1       -0.0609
     14  C12       -3.3990    2.2180    0.2570 C.ar    1  UNL1       -0.0582
     15  C13       -3.5780    1.1610   -0.6270 C.ar    1  UNL1       -0.0186
     16  C14       -2.6840    0.1080   -0.6760 C.ar    1  UNL1        0.1409
     17  O1        -2.8470   -0.8920   -1.5070 O.2     1  UNL1       -0.4208
     18  C15       -1.9750   -1.8690   -1.5170 C.ar    1  UNL1        0.3601
     19  O2        -2.1750   -2.8220   -2.3460 O.2     1  UNL1       -0.2430
     20 H           0.7949   -3.0191   -0.1746 H       1  UNL1        0.1426
     21 H          -0.1664   -3.7047   -1.4049 H       1  UNL1        0.1426
     22 H           0.3826   -1.2776    1.9581 H       1  UNL1        0.1522
     23 H           0.9098    0.3374   -1.2466 H       1  UNL1        0.0636
     24 H           2.9517    1.3412   -1.9873 H       1  UNL1        0.0618
     25 H           4.9028    1.3379   -0.5685 H       1  UNL1        0.0618
     26 H           4.7600    0.3062    1.6202 H       1  UNL1        0.0618
     27 H           2.7068   -0.6870    2.3313 H       1  UNL1        0.0636
     28 H          -0.6187    1.2079    1.7086 H       1  UNL1        0.0625
     29 H          -2.1833    3.0332    1.7783 H       1  UNL1        0.0618
     30 H          -4.0823    2.9913    0.2699 H       1  UNL1        0.0619
     31 H          -4.3939    1.1622   -1.2589 H       1  UNL1        0.0654
@<TRIPOS>BOND
     1     1     2    1
     2     2     3   ar
     3     2    18   ar
     4     3     4    1
     5     3    11   ar
     6     4     5    1
     7     5     6   ar
     8     5    10   ar
     9     6     7   ar
    10     7     8   ar
    11     8     9   ar
    12     9    10   ar
    13    11    12   ar
    14    11    16   ar
    15    12    13   ar
    16    13    14   ar
    17    14    15   ar
    18    15    16   ar
    19    16    17   ar
    20    17    18   ar
    21    18    19    2
    22     1    20    1
    23     1    21    1
    24     4    22    1
    25     6    23    1
    26     7    24    1
    27     8    25    1
    28     9    26    1
    29    10    27    1
    30    12    28    1
    31    13    29    1
    32    14    30    1
    33    15    31    1
