@<TRIPOS>MOLECULE
../data/bude_mols_rdkit_confs2/molecule_65.pdb
 37 39 0 0 0
SMALL
GASTEIGER

@<TRIPOS>ATOM
      1 O          -0.1740    0.8470   -1.4420 O.2     1  UNL1       -0.2917
      2 C           0.4090    0.0410   -0.6760 C.2     1  UNL1        0.1678
      3 C          -0.3170   -1.0690   -0.0160 C.3     1  UNL1        0.0362
      4 C          -1.7440   -1.1070   -0.3720 C.ar    1  UNL1       -0.0322
      5 C          -2.1950   -2.0520   -1.2760 C.ar    1  UNL1       -0.0576
      6 C          -3.5310   -2.0640   -1.5900 C.ar    1  UNL1       -0.0609
      7 C          -4.4240   -1.1570   -1.0250 C.ar    1  UNL1       -0.0540
      8 C          -3.9760   -0.2110   -0.1210 C.ar    1  UNL1       -0.0176
      9 C          -4.8370    0.7050    0.4590 C.ar    1  UNL1       -0.0540
     10 C          -4.4150    1.6570    1.3630 C.ar    1  UNL1       -0.0612
     11 C          -3.0720    1.6640    1.6750 C.ar    1  UNL1       -0.0612
     12 C          -2.2090    0.7540    1.1000 C.ar    1  UNL1       -0.0538
     13 C          -2.6350   -0.1980    0.1960 C.ar    1  UNL1       -0.0143
     14 C           1.8390    0.2160   -0.4420 C.ar    1  UNL1        0.0278
     15 C           2.5480    1.2480   -1.0510 C.ar    1  UNL1       -0.0056
     16 C           3.8810    1.4190   -0.8430 C.ar    1  UNL1        0.1659
     17 O           4.6030    2.4450   -1.4440 O.3     1  UNL1       -0.5031
     18 C           4.5600    0.5590   -0.0120 C.ar    1  UNL1        0.2370
     19 O           5.9200    0.6960    0.2280 O.3     1  UNL1       -0.4989
     20 C           3.8560   -0.4810    0.6040 C.ar    1  UNL1        0.3184
     21 N           4.6090   -1.3540    1.4640 N.pl3   1  UNL1        0.0836
     22 O           4.0170   -1.9270    2.3980 O.2     1  UNL1        0.0416
     23 O           5.9390   -1.5460    1.2590 O.co2   1  UNL1       -0.5759
     24 C           2.5070   -0.6500    0.3900 C.ar    1  UNL1        0.0301
     25 H          -0.2320   -0.9508    1.0440 H       1  UNL1        0.0394
     26 H           0.1231   -1.9856   -0.3493 H       1  UNL1        0.0394
     27 H          -1.5443   -2.7298   -1.7029 H       1  UNL1        0.0621
     28 H          -3.8830   -2.7634   -2.2623 H       1  UNL1        0.0618
     29 H          -5.4230   -1.1908   -1.2816 H       1  UNL1        0.0624
     30 H          -5.8365    0.6740    0.2041 H       1  UNL1        0.0624
     31 H          -5.0723    2.3313    1.7854 H       1  UNL1        0.0618
     32 H          -2.7081    2.3580    2.3465 H       1  UNL1        0.0618
     33 H          -1.2095    0.7863    1.3549 H       1  UNL1        0.0624
     34 H           2.0491    1.9000   -1.6764 H       1  UNL1        0.0662
     35 H           4.1715    3.0488   -2.0160 H       1  UNL1        0.2923
     36 H           6.4002    1.3895   -0.1800 H       1  UNL1        0.2925
     37 H           2.0005   -1.4219    0.8512 H       1  UNL1        0.0694
@<TRIPOS>UNITY_ATOM_ATTR
21 1
charge 1
23 1
charge -1
@<TRIPOS>BOND
     1     1     2    2
     2     2     3    1
     3     2    14    1
     4     3     4    1
     5     4     5   ar
     6     4    13   ar
     7     5     6   ar
     8     6     7   ar
     9     7     8   ar
    10     8     9   ar
    11     8    13   ar
    12     9    10   ar
    13    10    11   ar
    14    11    12   ar
    15    12    13   ar
    16    14    15   ar
    17    14    24   ar
    18    15    16   ar
    19    16    17    1
    20    16    18   ar
    21    18    19    1
    22    18    20   ar
    23    20    21    1
    24    20    24   ar
    25    21    22    2
    26    21    23    1
    27     3    25    1
    28     3    26    1
    29     5    27    1
    30     6    28    1
    31     7    29    1
    32     9    30    1
    33    10    31    1
    34    11    32    1
    35    12    33    1
    36    15    34    1
    37    17    35    1
    38    19    36    1
    39    24    37    1
@<TRIPOS>MOLECULE
../data/bude_mols_rdkit_confs2/molecule_65.pdb
 37 39 0 0 0
SMALL
GASTEIGER

@<TRIPOS>ATOM
      1 O          -0.2190   -1.5480    0.1970 O.2     1  UNL1       -0.2917
      2 C           0.4320   -0.5800   -0.2800 C.2     1  UNL1        0.1678
      3 C          -0.2920    0.3690   -1.1650 C.3     1  UNL1        0.0362
      4 C          -1.7030   -0.0210   -1.2800 C.ar    1  UNL1       -0.0322
      5 C          -2.1410   -0.6670   -2.4270 C.ar    1  UNL1       -0.0576
      6 C          -3.4510   -1.0530   -2.5750 C.ar    1  UNL1       -0.0609
      7 C          -4.3620   -0.7930   -1.5560 C.ar    1  UNL1       -0.0540
      8 C          -3.9640   -0.1560   -0.4080 C.ar    1  UNL1       -0.0176
      9 C          -4.8940    0.0940    0.5960 C.ar    1  UNL1       -0.0540
     10 C          -4.4820    0.7380    1.7490 C.ar    1  UNL1       -0.0612
     11 C          -3.1510    1.1100    1.8560 C.ar    1  UNL1       -0.0612
     12 C          -2.2340    0.8540    0.8480 C.ar    1  UNL1       -0.0538
     13 C          -2.6410    0.2120   -0.3030 C.ar    1  UNL1       -0.0143
     14 C           1.8580   -0.3940    0.0280 C.ar    1  UNL1        0.0278
     15 C           2.5300   -1.2840    0.8320 C.ar    1  UNL1       -0.0056
     16 C           3.8810   -1.1090    1.1360 C.ar    1  UNL1        0.1659
     17 O           4.5620   -2.0010    1.9440 O.3     1  UNL1       -0.5031
     18 C           4.5890   -0.0390    0.6420 C.ar    1  UNL1        0.2370
     19 O           5.9310    0.1620    0.9270 O.3     1  UNL1       -0.4989
     20 C           3.9100    0.8560   -0.1670 C.ar    1  UNL1        0.3184
     21 N           4.6260    1.9700   -0.6820 N.pl3   1  UNL1        0.0836
     22 O           5.5500    2.4370    0.0080 O.2     1  UNL1        0.0416
     23 O           4.3470    2.5400   -1.8870 O.co2   1  UNL1       -0.5759
     24 C           2.5560    0.6800   -0.4710 C.ar    1  UNL1        0.0301
     25 H           0.1575    0.3599   -2.1360 H       1  UNL1        0.0394
     26 H          -0.2343    1.3514   -0.7450 H       1  UNL1        0.0394
     27 H          -1.4684   -0.8617   -3.1851 H       1  UNL1        0.0621
     28 H          -3.7573   -1.5325   -3.4360 H       1  UNL1        0.0618
     29 H          -5.3467   -1.0821   -1.6648 H       1  UNL1        0.0624
     30 H          -5.8776   -0.1969    0.4823 H       1  UNL1        0.0624
     31 H          -5.1493    0.9366    2.5108 H       1  UNL1        0.0618
     32 H          -2.8331    1.5919    2.7114 H       1  UNL1        0.0618
     33 H          -1.2495    1.1430    0.9586 H       1  UNL1        0.0624
     34 H           2.0257   -2.0973    1.2183 H       1  UNL1        0.0662
     35 H           4.1164   -2.7438    2.3013 H       1  UNL1        0.2923
     36 H           6.3896   -0.4444    1.4747 H       1  UNL1        0.2925
     37 H           2.0758    1.3639   -1.0765 H       1  UNL1        0.0694
@<TRIPOS>UNITY_ATOM_ATTR
21 1
charge 1
23 1
charge -1
@<TRIPOS>BOND
     1     1     2    2
     2     2     3    1
     3     2    14    1
     4     3     4    1
     5     4     5   ar
     6     4    13   ar
     7     5     6   ar
     8     6     7   ar
     9     7     8   ar
    10     8     9   ar
    11     8    13   ar
    12     9    10   ar
    13    10    11   ar
    14    11    12   ar
    15    12    13   ar
    16    14    15   ar
    17    14    24   ar
    18    15    16   ar
    19    16    17    1
    20    16    18   ar
    21    18    19    1
    22    18    20   ar
    23    20    21    1
    24    20    24   ar
    25    21    22    2
    26    21    23    1
    27     3    25    1
    28     3    26    1
    29     5    27    1
    30     6    28    1
    31     7    29    1
    32     9    30    1
    33    10    31    1
    34    11    32    1
    35    12    33    1
    36    15    34    1
    37    17    35    1
    38    19    36    1
    39    24    37    1
@<TRIPOS>MOLECULE
../data/bude_mols_rdkit_confs2/molecule_65.pdb
 37 39 0 0 0
SMALL
GASTEIGER

@<TRIPOS>ATOM
      1 O          -0.0630    0.8130   -1.2360 O.2     1  UNL1       -0.2917
      2 C           0.4390    0.5390   -0.1260 C.2     1  UNL1        0.1678
      3 C          -0.3990    0.6100    1.0890 C.3     1  UNL1        0.0362
      4 C          -1.7870    1.0090    0.7200 C.ar    1  UNL1       -0.0322
      5 C          -2.2880    2.2540    0.9580 C.ar    1  UNL1       -0.0576
      6 C          -3.5840    2.5660    0.6020 C.ar    1  UNL1       -0.0609
      7 C          -4.4120    1.6430    0.0010 C.ar    1  UNL1       -0.0540
      8 C          -3.9110    0.3690   -0.2460 C.ar    1  UNL1       -0.0176
      9 C          -4.7200   -0.5930   -0.8550 C.ar    1  UNL1       -0.0540
     10 C          -4.2640   -1.8670   -1.1200 C.ar    1  UNL1       -0.0612
     11 C          -2.9700   -2.1490   -0.7560 C.ar    1  UNL1       -0.0612
     12 C          -2.1560   -1.2190   -0.1560 C.ar    1  UNL1       -0.0538
     13 C          -2.6090    0.0690    0.1150 C.ar    1  UNL1       -0.0143
     14 C           1.8360    0.1510   -0.0290 C.ar    1  UNL1        0.0278
     15 C           2.4470   -0.1610    1.1640 C.ar    1  UNL1       -0.0056
     16 C           3.7640   -0.5350    1.2750 C.ar    1  UNL1        0.1659
     17 O           4.3720   -0.8490    2.4880 O.3     1  UNL1       -0.5031
     18 C           4.5150   -0.6010    0.1240 C.ar    1  UNL1        0.2370
     19 O           5.8510   -0.9680    0.1260 O.3     1  UNL1       -0.4989
     20 C           3.9630   -0.3000   -1.1140 C.ar    1  UNL1        0.3184
     21 N           4.7400   -0.3660   -2.2950 N.pl3   1  UNL1        0.0836
     22 O           5.6550   -1.1910   -2.3870 O.2     1  UNL1        0.0416
     23 O           4.4880    0.4770   -3.3370 O.co2   1  UNL1       -0.5759
     24 C           2.6370    0.0700   -1.1690 C.ar    1  UNL1        0.0301
     25 H           0.0117    1.3330    1.7624 H       1  UNL1        0.0394
     26 H          -0.4202   -0.3499    1.5612 H       1  UNL1        0.0394
     27 H          -1.6939    2.9682    1.4075 H       1  UNL1        0.0621
     28 H          -3.9425    3.5152    0.7907 H       1  UNL1        0.0618
     29 H          -5.3794    1.8906   -0.2593 H       1  UNL1        0.0624
     30 H          -5.6871   -0.3430   -1.1142 H       1  UNL1        0.0624
     31 H          -4.8658   -2.5743   -1.5700 H       1  UNL1        0.0618
     32 H          -2.5959   -3.0931   -0.9397 H       1  UNL1        0.0618
     33 H          -1.1906   -1.4802    0.0986 H       1  UNL1        0.0624
     34 H           1.8822   -0.1110    2.0263 H       1  UNL1        0.0662
     35 H           3.8782   -0.8103    3.2834 H       1  UNL1        0.2923
     36 H           6.2768   -1.1823    0.9327 H       1  UNL1        0.2925
     37 H           2.2211    0.2954   -2.0862 H       1  UNL1        0.0694
@<TRIPOS>UNITY_ATOM_ATTR
21 1
charge 1
23 1
charge -1
@<TRIPOS>BOND
     1     1     2    2
     2     2     3    1
     3     2    14    1
     4     3     4    1
     5     4     5   ar
     6     4    13   ar
     7     5     6   ar
     8     6     7   ar
     9     7     8   ar
    10     8     9   ar
    11     8    13   ar
    12     9    10   ar
    13    10    11   ar
    14    11    12   ar
    15    12    13   ar
    16    14    15   ar
    17    14    24   ar
    18    15    16   ar
    19    16    17    1
    20    16    18   ar
    21    18    19    1
    22    18    20   ar
    23    20    21    1
    24    20    24   ar
    25    21    22    2
    26    21    23    1
    27     3    25    1
    28     3    26    1
    29     5    27    1
    30     6    28    1
    31     7    29    1
    32     9    30    1
    33    10    31    1
    34    11    32    1
    35    12    33    1
    36    15    34    1
    37    17    35    1
    38    19    36    1
    39    24    37    1
@<TRIPOS>MOLECULE
../data/bude_mols_rdkit_confs2/molecule_65.pdb
 37 39 0 0 0
SMALL
GASTEIGER

@<TRIPOS>ATOM
      1 O           0.7690    0.4960   -1.1680 O.2     1  UNL1       -0.2917
      2 C           0.6670    0.0000   -0.0170 C.2     1  UNL1        0.1678
      3 C          -0.2000   -1.2030    0.1140 C.3     1  UNL1        0.0362
      4 C          -0.7950   -1.6030   -1.1710 C.ar    1  UNL1       -0.0322
      5 C          -0.2790   -2.6860   -1.8490 C.ar    1  UNL1       -0.0576
      6 C          -0.7890   -3.1110   -3.0570 C.ar    1  UNL1       -0.0609
      7 C          -1.8500   -2.4560   -3.6390 C.ar    1  UNL1       -0.0540
      8 C          -2.3740   -1.3680   -2.9640 C.ar    1  UNL1       -0.0176
      9 C          -3.4430   -0.7340   -3.5780 C.ar    1  UNL1       -0.0540
     10 C          -3.9870    0.3460   -2.9370 C.ar    1  UNL1       -0.0612
     11 C          -3.4730    0.7660   -1.7290 C.ar    1  UNL1       -0.0612
     12 C          -2.4050    0.1380   -1.1110 C.ar    1  UNL1       -0.0538
     13 C          -1.8580   -0.9470   -1.7540 C.ar    1  UNL1       -0.0143
     14 C           1.3630    0.5800    1.1250 C.ar    1  UNL1        0.0278
     15 C           1.2480    0.0380    2.3630 C.ar    1  UNL1       -0.0056
     16 C           1.9060    0.5720    3.4800 C.ar    1  UNL1        0.1659
     17 O           1.7350   -0.0420    4.7080 O.3     1  UNL1       -0.5031
     18 C           2.6930    1.6820    3.3110 C.ar    1  UNL1        0.2370
     19 O           3.3610    2.2390    4.3980 O.3     1  UNL1       -0.4989
     20 C           2.8070    2.2300    2.0450 C.ar    1  UNL1        0.3184
     21 N           3.6300    3.3800    1.9140 N.pl3   1  UNL1        0.0836
     22 O           4.6200    3.5020    2.6600 O.2     1  UNL1        0.0416
     23 O           3.3290    4.3280    0.9810 O.co2   1  UNL1       -0.5759
     24 C           2.1440    1.6860    0.9410 C.ar    1  UNL1        0.0301
     25 H          -0.9873   -0.9865    0.8055 H       1  UNL1        0.0394
     26 H           0.4104   -2.0114    0.4587 H       1  UNL1        0.0394
     27 H           0.5176   -3.1971   -1.4377 H       1  UNL1        0.0621
     28 H          -0.3712   -3.9280   -3.5293 H       1  UNL1        0.0618
     29 H          -2.2396   -2.7643   -4.5436 H       1  UNL1        0.0624
     30 H          -3.8141   -1.0634   -4.4829 H       1  UNL1        0.0624
     31 H          -4.7842    0.8472   -3.3593 H       1  UNL1        0.0618
     32 H          -3.9020    1.5824   -1.2660 H       1  UNL1        0.0618
     33 H          -2.0354    0.4701   -0.2065 H       1  UNL1        0.0624
     34 H           0.6549   -0.7974    2.4872 H       1  UNL1        0.0662
     35 H           1.1882   -0.7994    4.7810 H       1  UNL1        0.2923
     36 H           3.2731    1.8557    5.2485 H       1  UNL1        0.2925
     37 H           2.2425    2.1112    0.0058 H       1  UNL1        0.0694
@<TRIPOS>UNITY_ATOM_ATTR
21 1
charge 1
23 1
charge -1
@<TRIPOS>BOND
     1     1     2    2
     2     2     3    1
     3     2    14    1
     4     3     4    1
     5     4     5   ar
     6     4    13   ar
     7     5     6   ar
     8     6     7   ar
     9     7     8   ar
    10     8     9   ar
    11     8    13   ar
    12     9    10   ar
    13    10    11   ar
    14    11    12   ar
    15    12    13   ar
    16    14    15   ar
    17    14    24   ar
    18    15    16   ar
    19    16    17    1
    20    16    18   ar
    21    18    19    1
    22    18    20   ar
    23    20    21    1
    24    20    24   ar
    25    21    22    2
    26    21    23    1
    27     3    25    1
    28     3    26    1
    29     5    27    1
    30     6    28    1
    31     7    29    1
    32     9    30    1
    33    10    31    1
    34    11    32    1
    35    12    33    1
    36    15    34    1
    37    17    35    1
    38    19    36    1
    39    24    37    1
@<TRIPOS>MOLECULE
../data/bude_mols_rdkit_confs2/molecule_65.pdb
 37 39 0 0 0
SMALL
GASTEIGER

@<TRIPOS>ATOM
      1 O          -0.1400    1.2290    0.8960 O.2     1  UNL1       -0.2917
      2 C           0.4260    0.1630    0.5570 C.2     1  UNL1        0.1678
      3 C          -0.3930   -1.0670    0.4460 C.3     1  UNL1        0.0362
      4 C          -1.8210   -0.8000    0.7720 C.ar    1  UNL1       -0.0322
      5 C          -2.3990   -1.1630    1.9690 C.ar    1  UNL1       -0.0576
      6 C          -3.7110   -0.9100    2.2540 C.ar    1  UNL1       -0.0609
      7 C          -4.5160   -0.2660    1.3250 C.ar    1  UNL1       -0.0540
      8 C          -3.9700    0.1090    0.1200 C.ar    1  UNL1       -0.0176
      9 C          -4.7570    0.7390   -0.7910 C.ar    1  UNL1       -0.0540
     10 C          -4.2010    1.1130   -2.0000 C.ar    1  UNL1       -0.0612
     11 C          -2.8790    0.8680   -2.3090 C.ar    1  UNL1       -0.0612
     12 C          -2.1180    0.2260   -1.3540 C.ar    1  UNL1       -0.0538
     13 C          -2.6420   -0.1560   -0.1480 C.ar    1  UNL1       -0.0143
     14 C           1.8440    0.0880    0.2710 C.ar    1  UNL1        0.0278
     15 C           2.4670   -1.0850   -0.1050 C.ar    1  UNL1       -0.0056
     16 C           3.8420   -1.1120   -0.3720 C.ar    1  UNL1        0.1659
     17 O           4.4770   -2.2830   -0.7500 O.3     1  UNL1       -0.5031
     18 C           4.5950    0.0300   -0.2630 C.ar    1  UNL1        0.2370
     19 O           5.9460   -0.0260   -0.5320 O.3     1  UNL1       -0.4989
     20 C           3.9690    1.1930    0.1110 C.ar    1  UNL1        0.3184
     21 N           4.7240    2.3790    0.2290 N.pl3   1  UNL1        0.0836
     22 O           4.3460    3.2650    1.0140 O.2     1  UNL1        0.0416
     23 O           5.8560    2.5130   -0.5310 O.co2   1  UNL1       -0.5759
     24 C           2.6170    1.2380    0.3780 C.ar    1  UNL1        0.0301
     25 H          -0.0123   -1.8012    1.1249 H       1  UNL1        0.0394
     26 H          -0.3379   -1.4183   -0.5632 H       1  UNL1        0.0394
     27 H          -1.8201   -1.6432    2.6756 H       1  UNL1        0.0621
     28 H          -4.1047   -1.1988    3.1632 H       1  UNL1        0.0618
     29 H          -5.5076   -0.0718    1.5349 H       1  UNL1        0.0624
     30 H          -5.7491    0.9342   -0.5846 H       1  UNL1        0.0624
     31 H          -4.7950    1.5917   -2.6950 H       1  UNL1        0.0618
     32 H          -2.4766    1.1528   -3.2156 H       1  UNL1        0.0618
     33 H          -1.1252    0.0280   -1.5543 H       1  UNL1        0.0624
     34 H           1.9136   -1.9519   -0.1904 H       1  UNL1        0.0662
     35 H           3.9860   -3.0768   -0.8319 H       1  UNL1        0.2923
     36 H           6.3401   -0.8376   -0.7849 H       1  UNL1        0.2925
     37 H           2.1776    2.1287    0.6583 H       1  UNL1        0.0694
@<TRIPOS>UNITY_ATOM_ATTR
21 1
charge 1
23 1
charge -1
@<TRIPOS>BOND
     1     1     2    2
     2     2     3    1
     3     2    14    1
     4     3     4    1
     5     4     5   ar
     6     4    13   ar
     7     5     6   ar
     8     6     7   ar
     9     7     8   ar
    10     8     9   ar
    11     8    13   ar
    12     9    10   ar
    13    10    11   ar
    14    11    12   ar
    15    12    13   ar
    16    14    15   ar
    17    14    24   ar
    18    15    16   ar
    19    16    17    1
    20    16    18   ar
    21    18    19    1
    22    18    20   ar
    23    20    21    1
    24    20    24   ar
    25    21    22    2
    26    21    23    1
    27     3    25    1
    28     3    26    1
    29     5    27    1
    30     6    28    1
    31     7    29    1
    32     9    30    1
    33    10    31    1
    34    11    32    1
    35    12    33    1
    36    15    34    1
    37    17    35    1
    38    19    36    1
    39    24    37    1
@<TRIPOS>MOLECULE
../data/bude_mols_rdkit_confs2/molecule_65.pdb
 37 39 0 0 0
SMALL
GASTEIGER

@<TRIPOS>ATOM
      1 O           0.6850   -0.9510    2.0900 O.2     1  UNL1       -0.2917
      2 C           0.7550   -0.6410    0.8510 C.2     1  UNL1        0.1678
      3 C          -0.4830   -0.7400    0.0920 C.3     1  UNL1        0.0362
      4 C          -1.6170    0.0450    0.6270 C.ar    1  UNL1       -0.0322
      5 C          -1.5350    0.8440    1.7420 C.ar    1  UNL1       -0.0576
      6 C          -2.6530    1.5540    2.1740 C.ar    1  UNL1       -0.0609
      7 C          -3.8580    1.4730    1.5010 C.ar    1  UNL1       -0.0540
      8 C          -3.9150    0.6550    0.3730 C.ar    1  UNL1       -0.0176
      9 C          -5.1010    0.5360   -0.3470 C.ar    1  UNL1       -0.0540
     10 C          -5.2380   -0.2450   -1.4680 C.ar    1  UNL1       -0.0612
     11 C          -4.1360   -0.9510   -1.9010 C.ar    1  UNL1       -0.0612
     12 C          -2.9300   -0.8530   -1.2000 C.ar    1  UNL1       -0.0538
     13 C          -2.8180   -0.0530   -0.0670 C.ar    1  UNL1       -0.0143
     14 C           2.0560   -0.2240    0.3240 C.ar    1  UNL1        0.0278
     15 C           2.2570    0.1310   -0.9730 C.ar    1  UNL1       -0.0056
     16 C           3.4880    0.5280   -1.4680 C.ar    1  UNL1        0.1659
     17 O           3.6060    0.8730   -2.7990 O.3     1  UNL1       -0.5031
     18 C           4.5680    0.5760   -0.6470 C.ar    1  UNL1        0.2370
     19 O           5.7980    0.9710   -1.1390 O.3     1  UNL1       -0.4989
     20 C           4.4020    0.2230    0.6750 C.ar    1  UNL1        0.3184
     21 N           5.5580    0.2830    1.5070 N.pl3   1  UNL1        0.0836
     22 O           6.6840    0.0520    1.0030 O.2     1  UNL1        0.0416
     23 O           5.4620    0.5840    2.8360 O.co2   1  UNL1       -0.5759
     24 C           3.1560   -0.1750    1.1580 C.ar    1  UNL1        0.0301
     25 H          -0.7751   -1.7691    0.0688 H       1  UNL1        0.0394
     26 H          -0.2709   -0.3326   -0.8744 H       1  UNL1        0.0394
     27 H          -0.6451    0.9181    2.2594 H       1  UNL1        0.0621
     28 H          -2.5804    2.1517    3.0122 H       1  UNL1        0.0618
     29 H          -4.6858    1.9991    1.8220 H       1  UNL1        0.0624
     30 H          -5.9242    1.0651   -0.0193 H       1  UNL1        0.0624
     31 H          -6.1376   -0.3017   -1.9705 H       1  UNL1        0.0618
     32 H          -4.2008   -1.5495   -2.7392 H       1  UNL1        0.0618
     33 H          -2.1082   -1.3836   -1.5289 H       1  UNL1        0.0624
     34 H           1.4534    0.1033   -1.6199 H       1  UNL1        0.0662
     35 H           2.8566    0.8377   -3.3604 H       1  UNL1        0.2923
     36 H           5.8879    1.2067   -2.0414 H       1  UNL1        0.2925
     37 H           3.0543   -0.4363    2.1512 H       1  UNL1        0.0694
@<TRIPOS>UNITY_ATOM_ATTR
21 1
charge 1
23 1
charge -1
@<TRIPOS>BOND
     1     1     2    2
     2     2     3    1
     3     2    14    1
     4     3     4    1
     5     4     5   ar
     6     4    13   ar
     7     5     6   ar
     8     6     7   ar
     9     7     8   ar
    10     8     9   ar
    11     8    13   ar
    12     9    10   ar
    13    10    11   ar
    14    11    12   ar
    15    12    13   ar
    16    14    15   ar
    17    14    24   ar
    18    15    16   ar
    19    16    17    1
    20    16    18   ar
    21    18    19    1
    22    18    20   ar
    23    20    21    1
    24    20    24   ar
    25    21    22    2
    26    21    23    1
    27     3    25    1
    28     3    26    1
    29     5    27    1
    30     6    28    1
    31     7    29    1
    32     9    30    1
    33    10    31    1
    34    11    32    1
    35    12    33    1
    36    15    34    1
    37    17    35    1
    38    19    36    1
    39    24    37    1
@<TRIPOS>MOLECULE
../data/bude_mols_rdkit_confs2/molecule_65.pdb
 37 39 0 0 0
SMALL
GASTEIGER

@<TRIPOS>ATOM
      1 O          -0.0130   -1.7010   -1.0100 O.2     1  UNL1       -0.2917
      2 C           0.3580   -0.5060   -0.9730 C.2     1  UNL1        0.1678
      3 C          -0.6320    0.5660   -1.1960 C.3     1  UNL1        0.0362
      4 C          -1.6150    0.6490   -0.0820 C.ar    1  UNL1       -0.0322
      5 C          -1.3600    1.5400    0.9760 C.ar    1  UNL1       -0.0576
      6 C          -2.2070    1.6020    2.0580 C.ar    1  UNL1       -0.0609
      7 C          -3.3080    0.7770    2.0870 C.ar    1  UNL1       -0.0540
      8 C          -3.5680   -0.1020    1.0500 C.ar    1  UNL1       -0.0176
      9 C          -4.6810   -0.9120    1.0860 C.ar    1  UNL1       -0.0540
     10 C          -4.9820   -1.7940    0.0610 C.ar    1  UNL1       -0.0612
     11 C          -4.1480   -1.8660   -1.0280 C.ar    1  UNL1       -0.0612
     12 C          -3.0230   -1.0550   -1.0740 C.ar    1  UNL1       -0.0538
     13 C          -2.7120   -0.1760   -0.0610 C.ar    1  UNL1       -0.0143
     14 C           1.7830   -0.2510   -0.7000 C.ar    1  UNL1        0.0278
     15 C           2.6610   -1.3220   -0.5390 C.ar    1  UNL1       -0.0056
     16 C           4.0000   -1.1270   -0.2460 C.ar    1  UNL1        0.1659
     17 O           4.8610   -2.2080   -0.0890 O.3     1  UNL1       -0.5031
     18 C           4.5150    0.1350   -0.1030 C.ar    1  UNL1        0.2370
     19 O           5.8630    0.3890    0.1950 O.3     1  UNL1       -0.4989
     20 C           3.6580    1.2070   -0.2590 C.ar    1  UNL1        0.3184
     21 N           4.1650    2.5210   -0.1010 N.pl3   1  UNL1        0.0836
     22 O           3.6270    3.4860   -0.6730 O.2     1  UNL1        0.0416
     23 O           5.2600    2.7480    0.6980 O.co2   1  UNL1       -0.5759
     24 C           2.3140    1.0070   -0.5540 C.ar    1  UNL1        0.0301
     25 H          -1.1568    0.3690   -2.1074 H       1  UNL1        0.0394
     26 H          -0.1082    1.4976   -1.2483 H       1  UNL1        0.0394
     27 H          -0.5302    2.1525    0.9402 H       1  UNL1        0.0621
     28 H          -2.0201    2.2557    2.8344 H       1  UNL1        0.0618
     29 H          -3.9497    0.8143    2.8944 H       1  UNL1        0.0624
     30 H          -5.3106   -0.8604    1.9021 H       1  UNL1        0.0624
     31 H          -5.8229   -2.3899    0.1150 H       1  UNL1        0.0618
     32 H          -4.3556   -2.5155   -1.8027 H       1  UNL1        0.0618
     33 H          -2.3992   -1.1126   -1.8941 H       1  UNL1        0.0624
     34 H           2.3036   -2.2848   -0.6408 H       1  UNL1        0.0662
     35 H           4.5369   -3.0823   -0.1811 H       1  UNL1        0.2923
     36 H           6.4609   -0.3240    0.3048 H       1  UNL1        0.2925
     37 H           1.6980    1.8273   -0.6664 H       1  UNL1        0.0694
@<TRIPOS>UNITY_ATOM_ATTR
21 1
charge 1
23 1
charge -1
@<TRIPOS>BOND
     1     1     2    2
     2     2     3    1
     3     2    14    1
     4     3     4    1
     5     4     5   ar
     6     4    13   ar
     7     5     6   ar
     8     6     7   ar
     9     7     8   ar
    10     8     9   ar
    11     8    13   ar
    12     9    10   ar
    13    10    11   ar
    14    11    12   ar
    15    12    13   ar
    16    14    15   ar
    17    14    24   ar
    18    15    16   ar
    19    16    17    1
    20    16    18   ar
    21    18    19    1
    22    18    20   ar
    23    20    21    1
    24    20    24   ar
    25    21    22    2
    26    21    23    1
    27     3    25    1
    28     3    26    1
    29     5    27    1
    30     6    28    1
    31     7    29    1
    32     9    30    1
    33    10    31    1
    34    11    32    1
    35    12    33    1
    36    15    34    1
    37    17    35    1
    38    19    36    1
    39    24    37    1
@<TRIPOS>MOLECULE
../data/bude_mols_rdkit_confs2/molecule_65.pdb
 37 39 0 0 0
SMALL
GASTEIGER

@<TRIPOS>ATOM
      1 O          -0.2060    0.3930    1.4290 O.2     1  UNL1       -0.2917
      2 C           0.4230   -0.2230    0.5390 C.2     1  UNL1        0.1678
      3 C          -0.3040   -1.2050   -0.2940 C.3     1  UNL1        0.0362
      4 C          -1.7060   -1.2520    0.1290 C.ar    1  UNL1       -0.0322
      5 C          -2.1450   -2.3160    0.8870 C.ar    1  UNL1       -0.0576
      6 C          -3.4440   -2.4520    1.3330 C.ar    1  UNL1       -0.0609
      7 C          -4.3430   -1.4720    1.0030 C.ar    1  UNL1       -0.0540
      8 C          -3.9440   -0.3880    0.2440 C.ar    1  UNL1       -0.0176
      9 C          -4.8550    0.6090   -0.0930 C.ar    1  UNL1       -0.0540
     10 C          -4.4720    1.6950   -0.8470 C.ar    1  UNL1       -0.0612
     11 C          -3.1590    1.7640   -1.2580 C.ar    1  UNL1       -0.0612
     12 C          -2.2290    0.7950   -0.9430 C.ar    1  UNL1       -0.0538
     13 C          -2.6350   -0.2780   -0.1890 C.ar    1  UNL1       -0.0143
     14 C           1.8420    0.0570    0.3680 C.ar    1  UNL1        0.0278
     15 C           2.5750   -0.6050   -0.6050 C.ar    1  UNL1       -0.0056
     16 C           3.9130   -0.3630   -0.7930 C.ar    1  UNL1        0.1659
     17 O           4.6470   -1.0240   -1.7660 O.3     1  UNL1       -0.5031
     18 C           4.5930    0.5770    0.0080 C.ar    1  UNL1        0.2370
     19 O           5.9400    0.7780   -0.2280 O.3     1  UNL1       -0.4989
     20 C           3.8900    1.2400    0.9740 C.ar    1  UNL1        0.3184
     21 N           4.5080    2.2010    1.8140 N.pl3   1  UNL1        0.0836
     22 O           3.7740    3.1180    2.2520 O.2     1  UNL1        0.0416
     23 O           5.8070    2.1710    2.1470 O.co2   1  UNL1       -0.5759
     24 C           2.5220    0.9660    1.1350 C.ar    1  UNL1        0.0301
     25 H           0.1382   -2.1721   -0.1751 H       1  UNL1        0.0394
     26 H          -0.2485   -0.9148   -1.3224 H       1  UNL1        0.0394
     27 H          -1.4649   -3.0516    1.1348 H       1  UNL1        0.0621
     28 H          -3.7296   -3.2671    1.8979 H       1  UNL1        0.0618
     29 H          -5.3217   -1.5436    1.3224 H       1  UNL1        0.0624
     30 H          -5.8330    0.5327    0.2275 H       1  UNL1        0.0624
     31 H          -5.1473    2.4344   -1.0966 H       1  UNL1        0.0618
     32 H          -2.8591    2.5730   -1.8242 H       1  UNL1        0.0618
     33 H          -1.2522    0.8747   -1.2662 H       1  UNL1        0.0624
     34 H           2.1016   -1.2989   -1.2045 H       1  UNL1        0.0662
     35 H           4.2306   -1.6560   -2.3184 H       1  UNL1        0.2923
     36 H           6.3742    0.2961   -0.9041 H       1  UNL1        0.2925
     37 H           2.0031    1.4748    1.8677 H       1  UNL1        0.0694
@<TRIPOS>UNITY_ATOM_ATTR
21 1
charge 1
23 1
charge -1
@<TRIPOS>BOND
     1     1     2    2
     2     2     3    1
     3     2    14    1
     4     3     4    1
     5     4     5   ar
     6     4    13   ar
     7     5     6   ar
     8     6     7   ar
     9     7     8   ar
    10     8     9   ar
    11     8    13   ar
    12     9    10   ar
    13    10    11   ar
    14    11    12   ar
    15    12    13   ar
    16    14    15   ar
    17    14    24   ar
    18    15    16   ar
    19    16    17    1
    20    16    18   ar
    21    18    19    1
    22    18    20   ar
    23    20    21    1
    24    20    24   ar
    25    21    22    2
    26    21    23    1
    27     3    25    1
    28     3    26    1
    29     5    27    1
    30     6    28    1
    31     7    29    1
    32     9    30    1
    33    10    31    1
    34    11    32    1
    35    12    33    1
    36    15    34    1
    37    17    35    1
    38    19    36    1
    39    24    37    1
@<TRIPOS>MOLECULE
../data/bude_mols_rdkit_confs2/molecule_65.pdb
 37 39 0 0 0
SMALL
GASTEIGER

@<TRIPOS>ATOM
      1 O          -0.0100    1.3700   -0.1280 O.2     1  UNL1       -0.2917
      2 C           0.4430    0.2260   -0.4160 C.2     1  UNL1        0.1678
      3 C          -0.4550   -0.7330   -1.0590 C.3     1  UNL1        0.0362
      4 C          -1.7910   -0.1020   -1.2450 C.ar    1  UNL1       -0.0322
      5 C          -2.1920    0.3120   -2.5070 C.ar    1  UNL1       -0.0576
      6 C          -3.4220    0.8780   -2.6480 C.ar    1  UNL1       -0.0609
      7 C          -4.2410    1.0340   -1.5670 C.ar    1  UNL1       -0.0540
      8 C          -3.8490    0.6240   -0.2980 C.ar    1  UNL1       -0.0176
      9 C          -4.7050    0.8020    0.7660 C.ar    1  UNL1       -0.0540
     10 C          -4.3310    0.4020    2.0290 C.ar    1  UNL1       -0.0612
     11 C          -3.0970   -0.1780    2.2380 C.ar    1  UNL1       -0.0612
     12 C          -2.2500   -0.3460    1.1400 C.ar    1  UNL1       -0.0538
     13 C          -2.5900    0.0410   -0.1370 C.ar    1  UNL1       -0.0143
     14 C           1.8330   -0.0560   -0.0860 C.ar    1  UNL1        0.0278
     15 C           2.3550   -1.2940   -0.3940 C.ar    1  UNL1       -0.0056
     16 C           3.6640   -1.6190   -0.1030 C.ar    1  UNL1        0.1659
     17 O           4.1730   -2.8690   -0.4200 O.3     1  UNL1       -0.5031
     18 C           4.5040   -0.6850    0.5230 C.ar    1  UNL1        0.2370
     19 O           5.7980   -1.0820    0.7840 O.3     1  UNL1       -0.4989
     20 C           4.0130    0.5570    0.8410 C.ar    1  UNL1        0.3184
     21 N           4.7950    1.5590    1.4800 N.pl3   1  UNL1        0.0836
     22 O           4.2480    2.4170    2.2150 O.2     1  UNL1        0.0416
     23 O           6.1430    1.6320    1.3260 O.co2   1  UNL1       -0.5759
     24 C           2.6780    0.8250    0.5200 C.ar    1  UNL1        0.0301
     25 H          -0.5521   -1.6019   -0.4422 H       1  UNL1        0.0394
     26 H          -0.0560   -1.0182   -2.0100 H       1  UNL1        0.0394
     27 H          -1.5705    0.1933   -3.3222 H       1  UNL1        0.0621
     28 H          -3.7377    1.1915   -3.5791 H       1  UNL1        0.0618
     29 H          -5.1700    1.4650   -1.6945 H       1  UNL1        0.0624
     30 H          -5.6291    1.2363    0.6161 H       1  UNL1        0.0624
     31 H          -4.9766    0.5366    2.8228 H       1  UNL1        0.0618
     32 H          -2.8070   -0.4800    3.1813 H       1  UNL1        0.0618
     33 H          -1.3265   -0.7804    1.2930 H       1  UNL1        0.0624
     34 H           1.7523   -1.9946   -0.8533 H       1  UNL1        0.0662
     35 H           3.6266   -3.5051   -0.8381 H       1  UNL1        0.2923
     36 H           6.0811   -1.9427    0.5454 H       1  UNL1        0.2925
     37 H           2.3061    1.7574    0.7594 H       1  UNL1        0.0694
@<TRIPOS>UNITY_ATOM_ATTR
21 1
charge 1
23 1
charge -1
@<TRIPOS>BOND
     1     1     2    2
     2     2     3    1
     3     2    14    1
     4     3     4    1
     5     4     5   ar
     6     4    13   ar
     7     5     6   ar
     8     6     7   ar
     9     7     8   ar
    10     8     9   ar
    11     8    13   ar
    12     9    10   ar
    13    10    11   ar
    14    11    12   ar
    15    12    13   ar
    16    14    15   ar
    17    14    24   ar
    18    15    16   ar
    19    16    17    1
    20    16    18   ar
    21    18    19    1
    22    18    20   ar
    23    20    21    1
    24    20    24   ar
    25    21    22    2
    26    21    23    1
    27     3    25    1
    28     3    26    1
    29     5    27    1
    30     6    28    1
    31     7    29    1
    32     9    30    1
    33    10    31    1
    34    11    32    1
    35    12    33    1
    36    15    34    1
    37    17    35    1
    38    19    36    1
    39    24    37    1
@<TRIPOS>MOLECULE
../data/bude_mols_rdkit_confs2/molecule_65.pdb
 37 39 0 0 0
SMALL
GASTEIGER

@<TRIPOS>ATOM
      1 O          -0.5060    1.8920    1.6100 O.2     1  UNL1       -0.2917
      2 C          -0.7000    0.7730    1.0600 C.2     1  UNL1        0.1678
      3 C           0.4240   -0.1930    1.0780 C.3     1  UNL1        0.0362
      4 C           1.5930    0.2700    0.2970 C.ar    1  UNL1       -0.0322
      5 C           1.5240    1.4670   -0.3730 C.ar    1  UNL1       -0.0576
      6 C           2.6050    1.9210   -1.1290 C.ar    1  UNL1       -0.0609
      7 C           3.7450    1.1550   -1.1970 C.ar    1  UNL1       -0.0540
      8 C           3.8470   -0.0510   -0.5370 C.ar    1  UNL1       -0.0176
      9 C           4.9970   -0.8230   -0.6090 C.ar    1  UNL1       -0.0540
     10 C           5.0670   -2.0190    0.0580 C.ar    1  UNL1       -0.0612
     11 C           3.9730   -2.4580    0.8120 C.ar    1  UNL1       -0.0612
     12 C           2.8240   -1.6730    0.8750 C.ar    1  UNL1       -0.0538
     13 C           2.7580   -0.4830    0.2100 C.ar    1  UNL1       -0.0143
     14 C          -1.9930    0.5180    0.4560 C.ar    1  UNL1        0.0278
     15 C          -2.2160   -0.6910   -0.1680 C.ar    1  UNL1       -0.0056
     16 C          -3.4380   -0.9630   -0.7490 C.ar    1  UNL1        0.1659
     17 O          -3.7250   -2.1590   -1.3890 O.3     1  UNL1       -0.5031
     18 C          -4.4220    0.0000   -0.6900 C.ar    1  UNL1        0.2370
     19 O          -5.6550   -0.2310   -1.2580 O.3     1  UNL1       -0.4989
     20 C          -4.2150    1.2190   -0.0690 C.ar    1  UNL1        0.3184
     21 N          -5.2400    2.1840   -0.0260 N.pl3   1  UNL1        0.0836
     22 O          -5.0070    3.4130    0.0530 O.2     1  UNL1        0.0416
     23 O          -6.5580    1.8150   -0.0660 O.co2   1  UNL1       -0.5759
     24 C          -2.9850    1.4740    0.5090 C.ar    1  UNL1        0.0301
     25 H           0.0840   -1.1204    0.6666 H       1  UNL1        0.0394
     26 H           0.7390   -0.3006    2.0949 H       1  UNL1        0.0394
     27 H           0.6647    2.0357   -0.3167 H       1  UNL1        0.0621
     28 H           2.5498    2.8209   -1.6312 H       1  UNL1        0.0618
     29 H           4.5444    1.4915   -1.7563 H       1  UNL1        0.0624
     30 H           5.8021   -0.4964   -1.1660 H       1  UNL1        0.0624
     31 H           5.9230   -2.5930    0.0041 H       1  UNL1        0.0618
     32 H           4.0171   -3.3566    1.3176 H       1  UNL1        0.0618
     33 H           2.0152   -1.9942    1.4297 H       1  UNL1        0.0624
     34 H          -1.4642   -1.3972   -0.2009 H       1  UNL1        0.0662
     35 H          -3.0730   -2.8298   -1.4427 H       1  UNL1        0.2923
     36 H          -5.8282   -1.0462   -1.6864 H       1  UNL1        0.2925
     37 H          -2.8102    2.3764    0.9782 H       1  UNL1        0.0694
@<TRIPOS>UNITY_ATOM_ATTR
21 1
charge 1
23 1
charge -1
@<TRIPOS>BOND
     1     1     2    2
     2     2     3    1
     3     2    14    1
     4     3     4    1
     5     4     5   ar
     6     4    13   ar
     7     5     6   ar
     8     6     7   ar
     9     7     8   ar
    10     8     9   ar
    11     8    13   ar
    12     9    10   ar
    13    10    11   ar
    14    11    12   ar
    15    12    13   ar
    16    14    15   ar
    17    14    24   ar
    18    15    16   ar
    19    16    17    1
    20    16    18   ar
    21    18    19    1
    22    18    20   ar
    23    20    21    1
    24    20    24   ar
    25    21    22    2
    26    21    23    1
    27     3    25    1
    28     3    26    1
    29     5    27    1
    30     6    28    1
    31     7    29    1
    32     9    30    1
    33    10    31    1
    34    11    32    1
    35    12    33    1
    36    15    34    1
    37    17    35    1
    38    19    36    1
    39    24    37    1
@<TRIPOS>MOLECULE
../data/bude_mols_rdkit_confs2/molecule_65.pdb
 37 39 0 0 0
SMALL
GASTEIGER

@<TRIPOS>ATOM
      1 O          -0.2040    0.7960    1.1790 O.2     1  UNL1       -0.2917
      2 C           0.4480    0.0120    0.4530 C.2     1  UNL1        0.1678
      3 C          -0.2210   -1.1980   -0.0690 C.3     1  UNL1        0.0362
      4 C          -1.6280   -1.2530    0.4020 C.ar    1  UNL1       -0.0322
      5 C          -2.0180   -2.1200    1.4180 C.ar    1  UNL1       -0.0576
      6 C          -3.3330   -2.1650    1.8500 C.ar    1  UNL1       -0.0609
      7 C          -4.2990   -1.3590    1.2950 C.ar    1  UNL1       -0.0540
      8 C          -3.8950   -0.5070    0.2890 C.ar    1  UNL1       -0.0176
      9 C          -4.8600    0.3190   -0.2860 C.ar    1  UNL1       -0.0540
     10 C          -4.5690    1.2090   -1.2960 C.ar    1  UNL1       -0.0612
     11 C          -3.2620    1.2590   -1.7310 C.ar    1  UNL1       -0.0612
     12 C          -2.2970    0.4440   -1.1670 C.ar    1  UNL1       -0.0538
     13 C          -2.5950   -0.4420   -0.1590 C.ar    1  UNL1       -0.0143
     14 C           1.8340    0.3370    0.1630 C.ar    1  UNL1        0.0278
     15 C           2.4330    1.4720    0.6620 C.ar    1  UNL1       -0.0056
     16 C           3.7480    1.8000    0.3990 C.ar    1  UNL1        0.1659
     17 O           4.3480    2.9470    0.9060 O.3     1  UNL1       -0.5031
     18 C           4.5180    0.9750   -0.3930 C.ar    1  UNL1        0.2370
     19 O           5.8540    1.2630   -0.6880 O.3     1  UNL1       -0.4989
     20 C           3.9430   -0.1710   -0.9080 C.ar    1  UNL1        0.3184
     21 N           4.7450   -1.0220   -1.7280 N.pl3   1  UNL1        0.0836
     22 O           4.1880   -1.7300   -2.5920 O.2     1  UNL1        0.0416
     23 O           6.1120   -1.0820   -1.5910 O.co2   1  UNL1       -0.5759
     24 C           2.6170   -0.4890   -0.6350 C.ar    1  UNL1        0.0301
     25 H           0.3008   -2.0662    0.2757 H       1  UNL1        0.0394
     26 H          -0.2131   -1.1659   -1.1385 H       1  UNL1        0.0394
     27 H          -1.3173   -2.7383    1.8559 H       1  UNL1        0.0621
     28 H          -3.5938   -2.8180    2.6053 H       1  UNL1        0.0618
     29 H          -5.2793   -1.3903    1.6160 H       1  UNL1        0.0624
     30 H          -5.8309    0.2612    0.0589 H       1  UNL1        0.0624
     31 H          -5.2976    1.8120   -1.7090 H       1  UNL1        0.0618
     32 H          -3.0004    1.9120   -2.4861 H       1  UNL1        0.0618
     33 H          -1.3263    0.5027   -1.5126 H       1  UNL1        0.0624
     34 H           1.8755    2.1040    1.2576 H       1  UNL1        0.0662
     35 H           3.8566    3.5322    1.4483 H       1  UNL1        0.2923
     36 H           6.2533    2.0376   -0.3437 H       1  UNL1        0.2925
     37 H           2.2086   -1.3503   -1.0304 H       1  UNL1        0.0694
@<TRIPOS>UNITY_ATOM_ATTR
21 1
charge 1
23 1
charge -1
@<TRIPOS>BOND
     1     1     2    2
     2     2     3    1
     3     2    14    1
     4     3     4    1
     5     4     5   ar
     6     4    13   ar
     7     5     6   ar
     8     6     7   ar
     9     7     8   ar
    10     8     9   ar
    11     8    13   ar
    12     9    10   ar
    13    10    11   ar
    14    11    12   ar
    15    12    13   ar
    16    14    15   ar
    17    14    24   ar
    18    15    16   ar
    19    16    17    1
    20    16    18   ar
    21    18    19    1
    22    18    20   ar
    23    20    21    1
    24    20    24   ar
    25    21    22    2
    26    21    23    1
    27     3    25    1
    28     3    26    1
    29     5    27    1
    30     6    28    1
    31     7    29    1
    32     9    30    1
    33    10    31    1
    34    11    32    1
    35    12    33    1
    36    15    34    1
    37    17    35    1
    38    19    36    1
    39    24    37    1
@<TRIPOS>MOLECULE
../data/bude_mols_rdkit_confs2/molecule_65.pdb
 37 39 0 0 0
SMALL
GASTEIGER

@<TRIPOS>ATOM
      1 O           0.0650    0.9210   -1.3550 O.2     1  UNL1       -0.2917
      2 C           0.5140    0.5070   -0.2620 C.2     1  UNL1        0.1678
      3 C          -0.3690    0.4360    0.8980 C.3     1  UNL1        0.0362
      4 C          -1.7460    0.8690    0.6490 C.ar    1  UNL1       -0.0322
      5 C          -2.1820    2.1000    1.0890 C.ar    1  UNL1       -0.0576
      6 C          -3.4590    2.5630    0.8880 C.ar    1  UNL1       -0.0609
      7 C          -4.3550    1.7740    0.2180 C.ar    1  UNL1       -0.0540
      8 C          -3.9500    0.5360   -0.2360 C.ar    1  UNL1       -0.0176
      9 C          -4.8680   -0.2550   -0.9130 C.ar    1  UNL1       -0.0540
     10 C          -4.5050   -1.5150   -1.3910 C.ar    1  UNL1       -0.0612
     11 C          -3.2050   -1.9600   -1.1740 C.ar    1  UNL1       -0.0612
     12 C          -2.3040   -1.1700   -0.5020 C.ar    1  UNL1       -0.0538
     13 C          -2.6470    0.0740   -0.0250 C.ar    1  UNL1       -0.0143
     14 C           1.9040    0.0970   -0.1350 C.ar    1  UNL1        0.0278
     15 C           2.3890   -0.3600    1.0760 C.ar    1  UNL1       -0.0056
     16 C           3.6950   -0.7580    1.2470 C.ar    1  UNL1        0.1659
     17 O           4.0920   -1.2010    2.4940 O.3     1  UNL1       -0.5031
     18 C           4.5650   -0.7070    0.1840 C.ar    1  UNL1        0.2370
     19 O           5.9040   -1.1010    0.3050 O.3     1  UNL1       -0.4989
     20 C           4.1320   -0.2580   -1.0500 C.ar    1  UNL1        0.3184
     21 N           5.0320   -0.2080   -2.1380 N.pl3   1  UNL1        0.0836
     22 O           6.2360    0.0130   -1.9600 O.2     1  UNL1        0.0416
     23 O           4.5690   -0.4060   -3.4070 O.co2   1  UNL1       -0.5759
     24 C           2.8040    0.1380   -1.1920 C.ar    1  UNL1        0.0301
     25 H           0.0412    1.0566    1.6671 H       1  UNL1        0.0394
     26 H          -0.4229   -0.5967    1.1728 H       1  UNL1        0.0394
     27 H          -1.5155    2.7041    1.5948 H       1  UNL1        0.0621
     28 H          -3.7394    3.4928    1.2371 H       1  UNL1        0.0618
     29 H          -5.3201    2.1009    0.0548 H       1  UNL1        0.0624
     30 H          -5.8281    0.0919   -1.0643 H       1  UNL1        0.0624
     31 H          -5.1865   -2.1040   -1.8947 H       1  UNL1        0.0618
     32 H          -2.9159   -2.8884   -1.5196 H       1  UNL1        0.0618
     33 H          -1.3446   -1.5189   -0.3510 H       1  UNL1        0.0624
     34 H           1.7470   -0.4044    1.8828 H       1  UNL1        0.0662
     35 H           3.4769   -1.2249    3.2004 H       1  UNL1        0.2923
     36 H           6.2289   -1.4101    1.1277 H       1  UNL1        0.2925
     37 H           2.4784    0.4726   -2.1123 H       1  UNL1        0.0694
@<TRIPOS>UNITY_ATOM_ATTR
21 1
charge 1
23 1
charge -1
@<TRIPOS>BOND
     1     1     2    2
     2     2     3    1
     3     2    14    1
     4     3     4    1
     5     4     5   ar
     6     4    13   ar
     7     5     6   ar
     8     6     7   ar
     9     7     8   ar
    10     8     9   ar
    11     8    13   ar
    12     9    10   ar
    13    10    11   ar
    14    11    12   ar
    15    12    13   ar
    16    14    15   ar
    17    14    24   ar
    18    15    16   ar
    19    16    17    1
    20    16    18   ar
    21    18    19    1
    22    18    20   ar
    23    20    21    1
    24    20    24   ar
    25    21    22    2
    26    21    23    1
    27     3    25    1
    28     3    26    1
    29     5    27    1
    30     6    28    1
    31     7    29    1
    32     9    30    1
    33    10    31    1
    34    11    32    1
    35    12    33    1
    36    15    34    1
    37    17    35    1
    38    19    36    1
    39    24    37    1
@<TRIPOS>MOLECULE
../data/bude_mols_rdkit_confs2/molecule_65.pdb
 37 39 0 0 0
SMALL
GASTEIGER

@<TRIPOS>ATOM
      1 O          -0.1630    0.4270    1.6480 O.2     1  UNL1       -0.2917
      2 C           0.4120    0.3880    0.5480 C.2     1  UNL1        0.1678
      3 C          -0.3420    0.7200   -0.6740 C.3     1  UNL1        0.0362
      4 C          -1.7290    1.0880   -0.4310 C.ar    1  UNL1       -0.0322
      5 C          -2.1390    2.4010   -0.4710 C.ar    1  UNL1       -0.0576
      6 C          -3.4550    2.7350   -0.2390 C.ar    1  UNL1       -0.0609
      7 C          -4.3910    1.7680    0.0370 C.ar    1  UNL1       -0.0540
      8 C          -4.0010    0.4560    0.0800 C.ar    1  UNL1       -0.0176
      9 C          -4.9310   -0.5310    0.3550 C.ar    1  UNL1       -0.0540
     10 C          -4.5250   -1.8380    0.3940 C.ar    1  UNL1       -0.0612
     11 C          -3.1980   -2.1620    0.1590 C.ar    1  UNL1       -0.0612
     12 C          -2.2510   -1.1840   -0.1190 C.ar    1  UNL1       -0.0538
     13 C          -2.6630    0.1160   -0.1550 C.ar    1  UNL1       -0.0143
     14 C           1.8050    0.0220    0.4590 C.ar    1  UNL1        0.0278
     15 C           2.5300   -0.2960    1.6020 C.ar    1  UNL1       -0.0056
     16 C           3.8660   -0.6450    1.5560 C.ar    1  UNL1        0.1659
     17 O           4.5760   -0.9600    2.7010 O.3     1  UNL1       -0.5031
     18 C           4.5450   -0.6880    0.3300 C.ar    1  UNL1        0.2370
     19 O           5.8810   -1.0420    0.3610 O.3     1  UNL1       -0.4989
     20 C           3.8420   -0.3760   -0.8050 C.ar    1  UNL1        0.3184
     21 N           4.4300   -0.3870   -2.0740 N.pl3   1  UNL1        0.0836
     22 O           3.9830    0.3800   -2.9620 O.2     1  UNL1        0.0416
     23 O           5.4660   -1.1890   -2.4050 O.co2   1  UNL1       -0.5759
     24 C           2.4840   -0.0270   -0.7180 C.ar    1  UNL1        0.0301
     25 H          -0.3282   -0.1327   -1.3202 H       1  UNL1        0.0394
     26 H           0.1336    1.5739   -1.1093 H       1  UNL1        0.0394
     27 H          -1.4528    3.1437   -0.6771 H       1  UNL1        0.0621
     28 H          -3.7420    3.7257   -0.2730 H       1  UNL1        0.0618
     29 H          -5.3750    2.0269    0.2096 H       1  UNL1        0.0624
     30 H          -5.9181   -0.2851    0.5285 H       1  UNL1        0.0624
     31 H          -5.2085   -2.5836    0.5988 H       1  UNL1        0.0618
     32 H          -2.9069   -3.1516    0.1912 H       1  UNL1        0.0618
     33 H          -1.2649   -1.4337   -0.2931 H       1  UNL1        0.0624
     34 H           2.0534   -0.2704    2.5170 H       1  UNL1        0.0662
     35 H           4.1511   -0.9406    3.5359 H       1  UNL1        0.2923
     36 H           6.2938   -1.2421    1.1780 H       1  UNL1        0.2925
     37 H           1.9783    0.2028   -1.5878 H       1  UNL1        0.0694
@<TRIPOS>UNITY_ATOM_ATTR
21 1
charge 1
23 1
charge -1
@<TRIPOS>BOND
     1     1     2    2
     2     2     3    1
     3     2    14    1
     4     3     4    1
     5     4     5   ar
     6     4    13   ar
     7     5     6   ar
     8     6     7   ar
     9     7     8   ar
    10     8     9   ar
    11     8    13   ar
    12     9    10   ar
    13    10    11   ar
    14    11    12   ar
    15    12    13   ar
    16    14    15   ar
    17    14    24   ar
    18    15    16   ar
    19    16    17    1
    20    16    18   ar
    21    18    19    1
    22    18    20   ar
    23    20    21    1
    24    20    24   ar
    25    21    22    2
    26    21    23    1
    27     3    25    1
    28     3    26    1
    29     5    27    1
    30     6    28    1
    31     7    29    1
    32     9    30    1
    33    10    31    1
    34    11    32    1
    35    12    33    1
    36    15    34    1
    37    17    35    1
    38    19    36    1
    39    24    37    1
@<TRIPOS>MOLECULE
../data/bude_mols_rdkit_confs2/molecule_65.pdb
 37 39 0 0 0
SMALL
GASTEIGER

@<TRIPOS>ATOM
      1 O          -0.0020    1.8510   -0.3630 O.2     1  UNL1       -0.2917
      2 C          -0.4380    0.6950   -0.6190 C.2     1  UNL1        0.1678
      3 C           0.4190   -0.2980   -1.2320 C.3     1  UNL1        0.0362
      4 C           1.6090   -0.7190   -0.4640 C.ar    1  UNL1       -0.0322
      5 C           1.5280   -1.8890    0.3220 C.ar    1  UNL1       -0.0576
      6 C           2.5800   -2.3340    1.0760 C.ar    1  UNL1       -0.0609
      7 C           3.7620   -1.6380    1.0850 C.ar    1  UNL1       -0.0540
      8 C           3.8730   -0.5010    0.3330 C.ar    1  UNL1       -0.0176
      9 C           5.0660    0.1820    0.3320 C.ar    1  UNL1       -0.0540
     10 C           5.2110    1.3170   -0.4270 C.ar    1  UNL1       -0.0612
     11 C           4.1370    1.7710   -1.1970 C.ar    1  UNL1       -0.0612
     12 C           2.9390    1.1040   -1.2090 C.ar    1  UNL1       -0.0538
     13 C           2.8060   -0.0370   -0.4400 C.ar    1  UNL1       -0.0143
     14 C          -1.8450    0.4360   -0.2590 C.ar    1  UNL1        0.0278
     15 C          -2.4080   -0.7990   -0.3840 C.ar    1  UNL1       -0.0056
     16 C          -3.7590   -1.0400   -0.0610 C.ar    1  UNL1        0.1659
     17 O          -4.2410   -2.3310   -0.2230 O.3     1  UNL1       -0.5031
     18 C          -4.5520   -0.0310    0.3920 C.ar    1  UNL1        0.2370
     19 O          -5.9040   -0.2330    0.7240 O.3     1  UNL1       -0.4989
     20 C          -3.9900    1.2360    0.5250 C.ar    1  UNL1        0.3184
     21 N          -4.8330    2.2760    0.9890 N.pl3   1  UNL1        0.0836
     22 O          -4.4100    3.2710    1.6010 O.2     1  UNL1        0.0416
     23 O          -6.1880    2.2010    0.7670 O.co2   1  UNL1       -0.5759
     24 C          -2.6650    1.4530    0.2040 C.ar    1  UNL1        0.0301
     25 H           0.7603    0.1007   -2.1644 H       1  UNL1        0.0394
     26 H          -0.1859   -1.1768   -1.3135 H       1  UNL1        0.0394
     27 H           0.6469   -2.4262    0.3282 H       1  UNL1        0.0621
     28 H           2.4839   -3.1940    1.6383 H       1  UNL1        0.0618
     29 H           4.5581   -1.9684    1.6525 H       1  UNL1        0.0624
     30 H           5.8548   -0.1593    0.9033 H       1  UNL1        0.0624
     31 H           6.1061    1.8307   -0.4288 H       1  UNL1        0.0618
     32 H           4.2475    2.6241   -1.7672 H       1  UNL1        0.0618
     33 H           2.1517    1.4472   -1.7812 H       1  UNL1        0.0624
     34 H          -1.8278   -1.5812   -0.7254 H       1  UNL1        0.0662
     35 H          -3.6732   -3.0071   -0.5367 H       1  UNL1        0.2923
     36 H          -6.2859   -1.0841    0.6359 H       1  UNL1        0.2925
     37 H          -2.2730    2.4015    0.3121 H       1  UNL1        0.0694
@<TRIPOS>UNITY_ATOM_ATTR
21 1
charge 1
23 1
charge -1
@<TRIPOS>BOND
     1     1     2    2
     2     2     3    1
     3     2    14    1
     4     3     4    1
     5     4     5   ar
     6     4    13   ar
     7     5     6   ar
     8     6     7   ar
     9     7     8   ar
    10     8     9   ar
    11     8    13   ar
    12     9    10   ar
    13    10    11   ar
    14    11    12   ar
    15    12    13   ar
    16    14    15   ar
    17    14    24   ar
    18    15    16   ar
    19    16    17    1
    20    16    18   ar
    21    18    19    1
    22    18    20   ar
    23    20    21    1
    24    20    24   ar
    25    21    22    2
    26    21    23    1
    27     3    25    1
    28     3    26    1
    29     5    27    1
    30     6    28    1
    31     7    29    1
    32     9    30    1
    33    10    31    1
    34    11    32    1
    35    12    33    1
    36    15    34    1
    37    17    35    1
    38    19    36    1
    39    24    37    1
@<TRIPOS>MOLECULE
../data/bude_mols_rdkit_confs2/molecule_65.pdb
 37 39 0 0 0
SMALL
GASTEIGER

@<TRIPOS>ATOM
      1 O          -0.4300    1.2000    0.8830 O.2     1  UNL1       -0.2917
      2 C           0.2770    0.2510    0.4560 C.2     1  UNL1        0.1678
      3 C          -0.2920   -1.0790    0.1100 C.3     1  UNL1        0.0362
      4 C          -1.7140   -1.0480    0.3600 C.ar    1  UNL1       -0.0322
      5 C          -2.2240   -1.6740    1.4780 C.ar    1  UNL1       -0.0576
      6 C          -3.5770   -1.6700    1.7540 C.ar    1  UNL1       -0.0609
      7 C          -4.4240   -1.0230    0.8820 C.ar    1  UNL1       -0.0540
      8 C          -3.9570   -0.3850   -0.2490 C.ar    1  UNL1       -0.0176
      9 C          -4.8220    0.2570   -1.1090 C.ar    1  UNL1       -0.0540
     10 C          -4.2740    0.8720   -2.2180 C.ar    1  UNL1       -0.0612
     11 C          -2.9150    0.8520   -2.4690 C.ar    1  UNL1       -0.0612
     12 C          -2.0610    0.2090   -1.6050 C.ar    1  UNL1       -0.0538
     13 C          -2.5840   -0.4070   -0.4990 C.ar    1  UNL1       -0.0143
     14 C           1.7020    0.4920    0.3040 C.ar    1  UNL1        0.0278
     15 C           2.2630    1.7060    0.6080 C.ar    1  UNL1       -0.0056
     16 C           3.6140    1.8850    0.4520 C.ar    1  UNL1        0.1659
     17 O           4.1630    3.0970    0.7580 O.3     1  UNL1       -0.5031
     18 C           4.4140    0.8680   -0.0040 C.ar    1  UNL1        0.2370
     19 O           5.7860    0.9670   -0.1890 O.3     1  UNL1       -0.4989
     20 C           3.8320   -0.3600   -0.3090 C.ar    1  UNL1        0.3184
     21 N           4.6420   -1.4390   -0.7860 N.pl3   1  UNL1        0.0836
     22 O           4.3070   -2.6180   -0.5960 O.2     1  UNL1        0.0416
     23 O           5.7960   -1.1370   -1.4590 O.co2   1  UNL1       -0.5759
     24 C           2.4900   -0.5360   -0.1540 C.ar    1  UNL1        0.0301
     25 H           0.1643   -1.8351    0.7142 H       1  UNL1        0.0394
     26 H          -0.1055   -1.3009   -0.9200 H       1  UNL1        0.0394
     27 H          -1.5794   -2.1567    2.1234 H       1  UNL1        0.0621
     28 H          -3.9452   -2.1414    2.5950 H       1  UNL1        0.0618
     29 H          -5.4368   -1.0150    1.0800 H       1  UNL1        0.0624
     30 H          -5.8384    0.2774   -0.9315 H       1  UNL1        0.0624
     31 H          -4.8980    1.3610   -2.8788 H       1  UNL1        0.0618
     32 H          -2.5401    1.3215   -3.3081 H       1  UNL1        0.0618
     33 H          -1.0452    0.1907   -1.7861 H       1  UNL1        0.0624
     34 H           1.6727    2.4796    0.9518 H       1  UNL1        0.0662
     35 H           3.6183    3.7928    1.0696 H       1  UNL1        0.2923
     36 H           6.2276    1.7712    0.0012 H       1  UNL1        0.2925
     37 H           2.0626   -1.4473   -0.3821 H       1  UNL1        0.0694
@<TRIPOS>UNITY_ATOM_ATTR
21 1
charge 1
23 1
charge -1
@<TRIPOS>BOND
     1     1     2    2
     2     2     3    1
     3     2    14    1
     4     3     4    1
     5     4     5   ar
     6     4    13   ar
     7     5     6   ar
     8     6     7   ar
     9     7     8   ar
    10     8     9   ar
    11     8    13   ar
    12     9    10   ar
    13    10    11   ar
    14    11    12   ar
    15    12    13   ar
    16    14    15   ar
    17    14    24   ar
    18    15    16   ar
    19    16    17    1
    20    16    18   ar
    21    18    19    1
    22    18    20   ar
    23    20    21    1
    24    20    24   ar
    25    21    22    2
    26    21    23    1
    27     3    25    1
    28     3    26    1
    29     5    27    1
    30     6    28    1
    31     7    29    1
    32     9    30    1
    33    10    31    1
    34    11    32    1
    35    12    33    1
    36    15    34    1
    37    17    35    1
    38    19    36    1
    39    24    37    1
@<TRIPOS>MOLECULE
../data/bude_mols_rdkit_confs2/molecule_65.pdb
 37 39 0 0 0
SMALL
GASTEIGER

@<TRIPOS>ATOM
      1 O          -0.0240   -0.7210   -1.3050 O.2     1  UNL1       -0.2917
      2 C           0.5110   -0.4400   -0.2070 C.2     1  UNL1        0.1678
      3 C          -0.2830   -0.5600    1.0500 C.3     1  UNL1        0.0362
      4 C          -1.6690   -1.0070    0.7970 C.ar    1  UNL1       -0.0322
      5 C          -2.0220   -2.3270    1.0350 C.ar    1  UNL1       -0.0576
      6 C          -3.3050   -2.7900    0.8110 C.ar    1  UNL1       -0.0609
      7 C          -4.2810   -1.9320    0.3360 C.ar    1  UNL1       -0.0540
      8 C          -3.9580   -0.6180    0.0920 C.ar    1  UNL1       -0.0176
      9 C          -4.9340    0.2460   -0.3790 C.ar    1  UNL1       -0.0540
     10 C          -4.6440    1.5790   -0.6320 C.ar    1  UNL1       -0.0612
     11 C          -3.3550    2.0240   -0.4010 C.ar    1  UNL1       -0.0612
     12 C          -2.4020    1.1450    0.0670 C.ar    1  UNL1       -0.0538
     13 C          -2.6700   -0.1890    0.3270 C.ar    1  UNL1       -0.0143
     14 C           1.8920   -0.0090   -0.2150 C.ar    1  UNL1        0.0278
     15 C           2.5530    0.3650    0.9530 C.ar    1  UNL1       -0.0056
     16 C           3.8680    0.7630    0.9470 C.ar    1  UNL1        0.1659
     17 O           4.4630    1.1210    2.1420 O.3     1  UNL1       -0.5031
     18 C           4.5950    0.8090   -0.2190 C.ar    1  UNL1        0.2370
     19 O           5.9150    1.1990   -0.2830 O.3     1  UNL1       -0.4989
     20 C           3.9500    0.4390   -1.3950 C.ar    1  UNL1        0.3184
     21 N           4.6880    0.4720   -2.6120 N.pl3   1  UNL1        0.0836
     22 O           4.3400   -0.3180   -3.5110 O.2     1  UNL1        0.0416
     23 O           5.7410    1.3180   -2.8190 O.co2   1  UNL1       -0.5759
     24 C           2.6150    0.0380   -1.3760 C.ar    1  UNL1        0.0301
     25 H          -0.3119    0.3952    1.5314 H       1  UNL1        0.0394
     26 H           0.1904   -1.2944    1.6676 H       1  UNL1        0.0394
     27 H          -1.3070   -2.9816    1.3891 H       1  UNL1        0.0621
     28 H          -3.5355   -3.7783    0.9986 H       1  UNL1        0.0618
     29 H          -5.2398   -2.2742    0.1669 H       1  UNL1        0.0624
     30 H          -5.8896   -0.1070   -0.5438 H       1  UNL1        0.0624
     31 H          -5.3711    2.2216   -0.9833 H       1  UNL1        0.0618
     32 H          -3.1077    3.0101   -0.5783 H       1  UNL1        0.0618
     33 H          -1.4457    1.4965    0.2311 H       1  UNL1        0.0624
     34 H           2.0402    0.3424    1.8483 H       1  UNL1        0.0662
     35 H           3.9701    1.0907    2.9383 H       1  UNL1        0.2923
     36 H           6.3672    1.4519    0.4977 H       1  UNL1        0.2925
     37 H           2.1593   -0.2309   -2.2620 H       1  UNL1        0.0694
@<TRIPOS>UNITY_ATOM_ATTR
21 1
charge 1
23 1
charge -1
@<TRIPOS>BOND
     1     1     2    2
     2     2     3    1
     3     2    14    1
     4     3     4    1
     5     4     5   ar
     6     4    13   ar
     7     5     6   ar
     8     6     7   ar
     9     7     8   ar
    10     8     9   ar
    11     8    13   ar
    12     9    10   ar
    13    10    11   ar
    14    11    12   ar
    15    12    13   ar
    16    14    15   ar
    17    14    24   ar
    18    15    16   ar
    19    16    17    1
    20    16    18   ar
    21    18    19    1
    22    18    20   ar
    23    20    21    1
    24    20    24   ar
    25    21    22    2
    26    21    23    1
    27     3    25    1
    28     3    26    1
    29     5    27    1
    30     6    28    1
    31     7    29    1
    32     9    30    1
    33    10    31    1
    34    11    32    1
    35    12    33    1
    36    15    34    1
    37    17    35    1
    38    19    36    1
    39    24    37    1
