@<TRIPOS>MOLECULE
../data/bude_mols_rdkit_confs2/molecule_21.pdb
 51 54 0 0 0
SMALL
GASTEIGER

@<TRIPOS>ATOM
      1  C1         7.0010    1.3660   -0.8720 C.3     1  UNL1        0.0368
      2  O1         5.6150    1.4210   -0.9500 O.3     1  UNL1       -0.3797
      3  C2         5.0260    0.1930   -0.6540 C.3     1  UNL1        0.0612
      4  C3         4.2870   -0.2610   -1.8850 C.3     1  UNL1       -0.0107
      5  C4         3.6180   -1.5760   -1.5550 C.3     1  UNL1        0.0173
      6  N1         2.6440   -1.2810   -0.5130 N.am    1  UNL1       -0.2973
      7  C5         1.2970   -1.7220   -0.7590 C.2     1  UNL1        0.2494
      8  O2         0.9520   -2.3210   -1.7840 O.2     1  UNL1       -0.2699
      9  C6         0.3180   -1.4230    0.2850 C.ar    1  UNL1        0.0723
     10  C7        -0.4060   -0.2520    0.2660 C.ar    1  UNL1       -0.0433
     11  C8        -1.3500    0.0760    1.2440 C.ar    1  UNL1       -0.0406
     12  C9        -2.0830    1.3640    1.1760 C.3     1  UNL1        0.0171
     13  C10       -3.1340    1.3580    0.1700 C.ar    1  UNL1        0.0736
     14  N2        -2.8290    1.8630   -1.0670 N.ar    1  UNL1       -0.1750
     15  N3        -3.6640    1.8770   -2.0710 N.ar    1  UNL1       -0.2425
     16  C11       -4.9300    1.3890   -1.9910 C.ar    1  UNL1        0.2725
     17  O3        -5.7210    1.4070   -2.9590 O.2     1  UNL1       -0.2658
     18  C12       -5.3010    0.8710   -0.7820 C.ar    1  UNL1        0.0496
     19  C13       -6.5620    0.3660   -0.5930 C.ar    1  UNL1       -0.0487
     20  C14       -6.9590   -0.1500    0.6270 C.ar    1  UNL1       -0.0610
     21  C15       -6.0680   -0.1550    1.6730 C.ar    1  UNL1       -0.0611
     22  C16       -4.8030    0.3550    1.4740 C.ar    1  UNL1       -0.0521
     23  C17       -4.4020    0.8650    0.2710 C.ar    1  UNL1        0.0106
     24  C18       -1.5250   -0.8370    2.2390 C.ar    1  UNL1       -0.0555
     25  C19       -0.7980   -2.0380    2.2770 C.ar    1  UNL1       -0.0254
     26  C20        0.1260   -2.3380    1.3030 C.ar    1  UNL1        0.1355
     27  F1         0.8390   -3.4920    1.3210 F       1  UNL1       -0.2047
     28  C21        3.0360   -0.6000    0.6690 C.3     1  UNL1        0.0173
     29  C22        4.1350    0.3870    0.5370 C.3     1  UNL1       -0.0107
     30 H           7.4098    2.3268   -1.1060 H       1  UNL1        0.0524
     31 H           7.3690    0.6424   -1.5691 H       1  UNL1        0.0524
     32 H           7.2916    1.0865    0.1191 H       1  UNL1        0.0524
     33 H           5.7357   -0.5668   -0.4012 H       1  UNL1        0.0597
     34 H           4.9735   -0.3936   -2.6950 H       1  UNL1        0.0305
     35 H           3.5607    0.4679   -2.1785 H       1  UNL1        0.0305
     36 H           4.3399   -2.2815   -1.2001 H       1  UNL1        0.0465
     37 H           3.1516   -2.0054   -2.4170 H       1  UNL1        0.0465
     38 H          -0.2445    0.4142   -0.5055 H       1  UNL1        0.0629
     39 H          -1.3873    2.1420    0.9400 H       1  UNL1        0.0377
     40 H          -2.5463    1.5235    2.1272 H       1  UNL1        0.0377
     41 H          -3.3621    2.2592   -2.9266 H       1  UNL1        0.1921
     42 H          -7.2301    0.3712   -1.3795 H       1  UNL1        0.0625
     43 H          -7.9120   -0.5264    0.7502 H       1  UNL1        0.0618
     44 H          -6.3415   -0.5345    2.5929 H       1  UNL1        0.0618
     45 H          -4.1353    0.3516    2.2609 H       1  UNL1        0.0624
     46 H          -2.2103   -0.6411    2.9853 H       1  UNL1        0.0621
     47 H          -0.9594   -2.7056    3.0473 H       1  UNL1        0.0646
     48 H           3.3462   -1.3371    1.3799 H       1  UNL1        0.0465
     49 H           2.1795   -0.0290    0.9611 H       1  UNL1        0.0465
     50 H           3.6986    1.3616    0.4691 H       1  UNL1        0.0305
     51 H           4.7567    0.2570    1.3981 H       1  UNL1        0.0305
@<TRIPOS>BOND
     1     1     2    1
     2     2     3    1
     3     3     4    1
     4     3    29    1
     5     4     5    1
     6     5     6    1
     7     6     7   am
     8     6    28    1
     9     7     8    2
    10     7     9    1
    11     9    10   ar
    12     9    26   ar
    13    10    11   ar
    14    11    12    1
    15    11    24   ar
    16    12    13    1
    17    13    14   ar
    18    13    23   ar
    19    14    15   ar
    20    15    16   ar
    21    16    17    2
    22    16    18   ar
    23    18    19   ar
    24    18    23   ar
    25    19    20   ar
    26    20    21   ar
    27    21    22   ar
    28    22    23   ar
    29    24    25   ar
    30    25    26   ar
    31    26    27    1
    32    28    29    1
    33     1    30    1
    34     1    31    1
    35     1    32    1
    36     3    33    1
    37     4    34    1
    38     4    35    1
    39     5    36    1
    40     5    37    1
    41    10    38    1
    42    12    39    1
    43    12    40    1
    44    15    41    1
    45    19    42    1
    46    20    43    1
    47    21    44    1
    48    22    45    1
    49    24    46    1
    50    25    47    1
    51    28    48    1
    52    28    49    1
    53    29    50    1
    54    29    51    1
@<TRIPOS>MOLECULE
../data/bude_mols_rdkit_confs2/molecule_21.pdb
 51 54 0 0 0
SMALL
GASTEIGER

@<TRIPOS>ATOM
      1  C1         7.1980   -0.3330    0.9120 C.3     1  UNL1        0.0368
      2  O1         5.8370   -0.0470    0.9010 O.3     1  UNL1       -0.3797
      3  C2         5.3260    0.0610   -0.4130 C.3     1  UNL1        0.0612
      4  C3         4.3570   -1.0300   -0.7170 C.3     1  UNL1       -0.0107
      5  C4         2.9450   -0.7090   -0.2850 C.3     1  UNL1        0.0173
      6  N1         2.6040    0.6650   -0.6350 N.am    1  UNL1       -0.2973
      7  C5         1.4180    1.2750   -0.2140 C.2     1  UNL1        0.2494
      8  O2         1.1790    2.4620   -0.5460 O.2     1  UNL1       -0.2699
      9  C6         0.4440    0.5470    0.6130 C.ar    1  UNL1        0.0723
     10  C7        -0.5460   -0.1840    0.0030 C.ar    1  UNL1       -0.0433
     11  C8        -1.5020   -0.9110    0.7220 C.ar    1  UNL1       -0.0406
     12  C9        -2.5260   -1.6860   -0.0050 C.3     1  UNL1        0.0171
     13  C10       -3.5950   -0.8190   -0.5280 C.ar    1  UNL1        0.0736
     14  N2        -3.5000   -0.3100   -1.7940 N.ar    1  UNL1       -0.1750
     15  N3        -4.3780    0.5180   -2.3010 N.ar    1  UNL1       -0.2425
     16  C11       -5.4500    0.9330   -1.6080 C.ar    1  UNL1        0.2725
     17  O3        -6.2980    1.7370   -2.1050 O.2     1  UNL1       -0.2658
     18  C12       -5.6090    0.4530   -0.3170 C.ar    1  UNL1        0.0496
     19  C13       -6.7020    0.8300    0.4370 C.ar    1  UNL1       -0.0487
     20  C14       -6.8900    0.3570    1.7010 C.ar    1  UNL1       -0.0610
     21  C15       -5.9920   -0.5080    2.2500 C.ar    1  UNL1       -0.0611
     22  C16       -4.8910   -0.8880    1.4920 C.ar    1  UNL1       -0.0521
     23  C17       -4.6750   -0.4230    0.2130 C.ar    1  UNL1        0.0106
     24  C18       -1.3980   -0.8570    2.0810 C.ar    1  UNL1       -0.0555
     25  C19       -0.3880   -0.1130    2.7140 C.ar    1  UNL1       -0.0254
     26  C20        0.5390    0.5940    1.9860 C.ar    1  UNL1        0.1355
     27  F1         1.5070    1.3080    2.6220 F       1  UNL1       -0.2047
     28  C21        3.5530    1.3820   -1.4510 C.3     1  UNL1        0.0173
     29  C22        4.8560    1.4490   -0.6960 C.3     1  UNL1       -0.0107
     30 H           7.5391   -0.4052    1.9236 H       1  UNL1        0.0524
     31 H           7.7306    0.4480    0.4108 H       1  UNL1        0.0524
     32 H           7.3713   -1.2619    0.4100 H       1  UNL1        0.0524
     33 H           6.1173   -0.0985   -1.1153 H       1  UNL1        0.0597
     34 H           4.6742   -1.9176   -0.2105 H       1  UNL1        0.0305
     35 H           4.3436   -1.1567   -1.7794 H       1  UNL1        0.0305
     36 H           2.8642   -0.8329    0.7747 H       1  UNL1        0.0465
     37 H           2.2706   -1.3715   -0.7862 H       1  UNL1        0.0465
     38 H          -0.5867   -0.1978   -1.0281 H       1  UNL1        0.0629
     39 H          -2.9565   -2.4034    0.6620 H       1  UNL1        0.0377
     40 H          -2.0527   -2.1693   -0.8340 H       1  UNL1        0.0377
     41 H          -4.2479    0.8468   -3.2198 H       1  UNL1        0.1921
     42 H          -7.3915    1.4841    0.0348 H       1  UNL1        0.0625
     43 H          -7.7153    0.6550    2.2442 H       1  UNL1        0.0618
     44 H          -6.1262   -0.8724    3.2061 H       1  UNL1        0.0618
     45 H          -4.2085   -1.5440    1.9030 H       1  UNL1        0.0624
     46 H          -2.0781   -1.3755    2.6587 H       1  UNL1        0.0621
     47 H          -0.3413   -0.0971    3.7448 H       1  UNL1        0.0646
     48 H           3.1930    2.3711   -1.6432 H       1  UNL1        0.0465
     49 H           3.6903    0.8837   -2.3879 H       1  UNL1        0.0465
     50 H           5.5865    1.9617   -1.2862 H       1  UNL1        0.0305
     51 H           4.7139    1.9770    0.2238 H       1  UNL1        0.0305
@<TRIPOS>BOND
     1     1     2    1
     2     2     3    1
     3     3     4    1
     4     3    29    1
     5     4     5    1
     6     5     6    1
     7     6     7   am
     8     6    28    1
     9     7     8    2
    10     7     9    1
    11     9    10   ar
    12     9    26   ar
    13    10    11   ar
    14    11    12    1
    15    11    24   ar
    16    12    13    1
    17    13    14   ar
    18    13    23   ar
    19    14    15   ar
    20    15    16   ar
    21    16    17    2
    22    16    18   ar
    23    18    19   ar
    24    18    23   ar
    25    19    20   ar
    26    20    21   ar
    27    21    22   ar
    28    22    23   ar
    29    24    25   ar
    30    25    26   ar
    31    26    27    1
    32    28    29    1
    33     1    30    1
    34     1    31    1
    35     1    32    1
    36     3    33    1
    37     4    34    1
    38     4    35    1
    39     5    36    1
    40     5    37    1
    41    10    38    1
    42    12    39    1
    43    12    40    1
    44    15    41    1
    45    19    42    1
    46    20    43    1
    47    21    44    1
    48    22    45    1
    49    24    46    1
    50    25    47    1
    51    28    48    1
    52    28    49    1
    53    29    50    1
    54    29    51    1
@<TRIPOS>MOLECULE
../data/bude_mols_rdkit_confs2/molecule_21.pdb
 51 54 0 0 0
SMALL
GASTEIGER

@<TRIPOS>ATOM
      1  C1         7.4040   -0.6820    0.2990 C.3     1  UNL1        0.0368
      2  O1         6.4560    0.1920   -0.2310 O.3     1  UNL1       -0.3797
      3  C2         5.2130    0.0200    0.3750 C.3     1  UNL1        0.0612
      4  C3         4.1780   -0.3160   -0.6920 C.3     1  UNL1       -0.0107
      5  C4         2.8700   -0.6150    0.0520 C.3     1  UNL1        0.0173
      6  N1         2.5200    0.6040    0.7610 N.am    1  UNL1       -0.2973
      7  C5         1.2920    1.2610    0.4880 C.2     1  UNL1        0.2494
      8  O2         0.9660    2.3110    1.0850 O.2     1  UNL1       -0.2699
      9  C6         0.3810    0.7090   -0.5070 C.ar    1  UNL1        0.0723
     10  C7        -0.6000   -0.2050   -0.1610 C.ar    1  UNL1       -0.0433
     11  C8        -1.4800   -0.7560   -1.0470 C.ar    1  UNL1       -0.0406
     12  C9        -2.5040   -1.7050   -0.6170 C.3     1  UNL1        0.0171
     13  C10       -3.8860   -1.2720   -0.6900 C.ar    1  UNL1        0.0736
     14  N2        -4.6350   -1.6030   -1.7890 N.ar    1  UNL1       -0.1750
     15  N3        -5.8810   -1.2120   -1.9530 N.ar    1  UNL1       -0.2425
     16  C11       -6.4880   -0.4540   -1.0300 C.ar    1  UNL1        0.2725
     17  O3        -7.6950   -0.0830   -1.2040 O.2     1  UNL1       -0.2658
     18  C12       -5.8200   -0.0690    0.1110 C.ar    1  UNL1        0.0496
     19  C13       -6.4830    0.6990    1.0410 C.ar    1  UNL1       -0.0487
     20  C14       -5.8100    1.0640    2.1820 C.ar    1  UNL1       -0.0610
     21  C15       -4.4900    0.6450    2.3530 C.ar    1  UNL1       -0.0611
     22  C16       -3.8520   -0.1240    1.4040 C.ar    1  UNL1       -0.0521
     23  C17       -4.5010   -0.5010    0.2560 C.ar    1  UNL1        0.0106
     24  C18       -1.3420   -0.3440   -2.3670 C.ar    1  UNL1       -0.0555
     25  C19       -0.3740    0.5630   -2.7360 C.ar    1  UNL1       -0.0254
     26  C20        0.4960    1.0980   -1.8120 C.ar    1  UNL1        0.1355
     27  F1         1.4600    1.9920   -2.1340 F       1  UNL1       -0.2047
     28  C21        3.4760    1.0910    1.7330 C.3     1  UNL1        0.0173
     29  C22        4.7920    1.3230    1.0160 C.3     1  UNL1       -0.0107
     30 H           8.3446   -0.5249   -0.1862 H       1  UNL1        0.0524
     31 H           7.0858   -1.6914    0.1418 H       1  UNL1        0.0524
     32 H           7.5092   -0.5005    1.3482 H       1  UNL1        0.0524
     33 H           5.2801   -0.7621    1.1021 H       1  UNL1        0.0597
     34 H           4.4891   -1.1727   -1.2525 H       1  UNL1        0.0305
     35 H           4.0556    0.4927   -1.3819 H       1  UNL1        0.0305
     36 H           3.0120   -1.4188    0.7438 H       1  UNL1        0.0465
     37 H           2.0949   -0.9093   -0.6244 H       1  UNL1        0.0465
     38 H          -0.6702   -0.4874    0.8291 H       1  UNL1        0.0629
     39 H          -2.3000   -1.9577    0.4025 H       1  UNL1        0.0377
     40 H          -2.4340   -2.5169   -1.3104 H       1  UNL1        0.0377
     41 H          -6.3725   -1.4795   -2.7630 H       1  UNL1        0.1921
     42 H          -7.4599    0.9930    0.8855 H       1  UNL1        0.0625
     43 H          -6.2740    1.6396    2.9020 H       1  UNL1        0.0618
     44 H          -3.9807    0.9168    3.2084 H       1  UNL1        0.0618
     45 H          -2.8754   -0.4194    1.5587 H       1  UNL1        0.0624
     46 H          -1.9777   -0.7254   -3.0850 H       1  UNL1        0.0621
     47 H          -0.2988    0.8477   -3.7251 H       1  UNL1        0.0646
     48 H           3.6074    0.3658    2.5087 H       1  UNL1        0.0465
     49 H           3.1272    2.0005    2.1758 H       1  UNL1        0.0465
     50 H           4.6679    2.0739    0.2639 H       1  UNL1        0.0305
     51 H           5.5380    1.6541    1.7079 H       1  UNL1        0.0305
@<TRIPOS>BOND
     1     1     2    1
     2     2     3    1
     3     3     4    1
     4     3    29    1
     5     4     5    1
     6     5     6    1
     7     6     7   am
     8     6    28    1
     9     7     8    2
    10     7     9    1
    11     9    10   ar
    12     9    26   ar
    13    10    11   ar
    14    11    12    1
    15    11    24   ar
    16    12    13    1
    17    13    14   ar
    18    13    23   ar
    19    14    15   ar
    20    15    16   ar
    21    16    17    2
    22    16    18   ar
    23    18    19   ar
    24    18    23   ar
    25    19    20   ar
    26    20    21   ar
    27    21    22   ar
    28    22    23   ar
    29    24    25   ar
    30    25    26   ar
    31    26    27    1
    32    28    29    1
    33     1    30    1
    34     1    31    1
    35     1    32    1
    36     3    33    1
    37     4    34    1
    38     4    35    1
    39     5    36    1
    40     5    37    1
    41    10    38    1
    42    12    39    1
    43    12    40    1
    44    15    41    1
    45    19    42    1
    46    20    43    1
    47    21    44    1
    48    22    45    1
    49    24    46    1
    50    25    47    1
    51    28    48    1
    52    28    49    1
    53    29    50    1
    54    29    51    1
@<TRIPOS>MOLECULE
../data/bude_mols_rdkit_confs2/molecule_21.pdb
 51 54 0 0 0
SMALL
GASTEIGER

@<TRIPOS>ATOM
      1  C1         5.7120    2.5440    1.3000 C.3     1  UNL1        0.0368
      2  O1         4.7170    1.9610    0.5360 O.3     1  UNL1       -0.3797
      3  C2         4.7880    0.5790    0.5280 C.3     1  UNL1        0.0612
      4  C3         3.5450    0.0180    1.1490 C.3     1  UNL1       -0.0107
      5  C4         2.3270    0.1700    0.2890 C.3     1  UNL1        0.0173
      6  N1         2.6500   -0.2620   -1.0580 N.am    1  UNL1       -0.2973
      7  C5         1.9090   -1.2270   -1.7590 C.2     1  UNL1        0.2494
      8  O2         2.2620   -1.5400   -2.9220 O.2     1  UNL1       -0.2699
      9  C6         0.7350   -1.8970   -1.2010 C.ar    1  UNL1        0.0723
     10  C7        -0.5210   -1.3340   -1.3930 C.ar    1  UNL1       -0.0433
     11  C8        -1.6670   -1.9060   -0.8990 C.ar    1  UNL1       -0.0406
     12  C9        -2.9590   -1.2210   -1.1610 C.3     1  UNL1        0.0171
     13  C10       -3.1940   -0.2800   -0.0420 C.ar    1  UNL1        0.0736
     14  N2        -2.3450   -0.1300    0.9890 N.ar    1  UNL1       -0.1750
     15  N3        -2.5800    0.7210    1.9790 N.ar    1  UNL1       -0.2425
     16  C11       -3.6790    1.4950    2.0290 C.ar    1  UNL1        0.2725
     17  O3        -3.8520    2.2910    2.9990 O.2     1  UNL1       -0.2658
     18  C12       -4.5870    1.3880    1.0040 C.ar    1  UNL1        0.0496
     19  C13       -5.7220    2.1710    1.0340 C.ar    1  UNL1       -0.0487
     20  C14       -6.6200    2.0480   -0.0060 C.ar    1  UNL1       -0.0610
     21  C15       -6.3800    1.1610   -1.0430 C.ar    1  UNL1       -0.0611
     22  C16       -5.2430    0.3800   -1.0650 C.ar    1  UNL1       -0.0521
     23  C17       -4.3380    0.4890   -0.0410 C.ar    1  UNL1        0.0106
     24  C18       -1.5730   -3.0720   -0.1910 C.ar    1  UNL1       -0.0555
     25  C19       -0.3410   -3.6850    0.0350 C.ar    1  UNL1       -0.0254
     26  C20        0.7900   -3.0630   -0.4890 C.ar    1  UNL1        0.1355
     27  F1         1.9940   -3.6430   -0.2800 F       1  UNL1       -0.2047
     28  C21        3.7980    0.3490   -1.6890 C.3     1  UNL1        0.0173
     29  C22        5.0050    0.0110   -0.8460 C.3     1  UNL1       -0.0107
     30 H           5.6077    3.6085    1.2693 H       1  UNL1        0.0524
     31 H           6.6693    2.2680    0.9097 H       1  UNL1        0.0524
     32 H           5.6286    2.2065    2.3119 H       1  UNL1        0.0524
     33 H           5.6441    0.2927    1.1026 H       1  UNL1        0.0597
     34 H           3.3709    0.5242    2.0755 H       1  UNL1        0.0305
     35 H           3.7062   -1.0311    1.2843 H       1  UNL1        0.0305
     36 H           2.0224    1.1956    0.2746 H       1  UNL1        0.0465
     37 H           1.5285   -0.4251    0.6804 H       1  UNL1        0.0465
     38 H          -0.5949   -0.4537   -1.9265 H       1  UNL1        0.0629
     39 H          -3.7510   -1.9389   -1.2080 H       1  UNL1        0.0377
     40 H          -2.9283   -0.6990   -2.0945 H       1  UNL1        0.0377
     41 H          -1.9221    0.7890    2.7082 H       1  UNL1        0.1921
     42 H          -5.8942    2.8286    1.8105 H       1  UNL1        0.0625
     43 H          -7.4779    2.6216   -0.0117 H       1  UNL1        0.0618
     44 H          -7.0636    1.0832   -1.8122 H       1  UNL1        0.0618
     45 H          -5.0758   -0.2779   -1.8424 H       1  UNL1        0.0624
     46 H          -2.4307   -3.5069    0.1835 H       1  UNL1        0.0621
     47 H          -0.2699   -4.5649    0.5695 H       1  UNL1        0.0646
     48 H           3.6690    1.4102   -1.7354 H       1  UNL1        0.0465
     49 H           3.9195   -0.0137   -2.6883 H       1  UNL1        0.0465
     50 H           5.1193   -1.0512   -0.7856 H       1  UNL1        0.0305
     51 H           5.8900    0.4245   -1.2827 H       1  UNL1        0.0305
@<TRIPOS>BOND
     1     1     2    1
     2     2     3    1
     3     3     4    1
     4     3    29    1
     5     4     5    1
     6     5     6    1
     7     6     7   am
     8     6    28    1
     9     7     8    2
    10     7     9    1
    11     9    10   ar
    12     9    26   ar
    13    10    11   ar
    14    11    12    1
    15    11    24   ar
    16    12    13    1
    17    13    14   ar
    18    13    23   ar
    19    14    15   ar
    20    15    16   ar
    21    16    17    2
    22    16    18   ar
    23    18    19   ar
    24    18    23   ar
    25    19    20   ar
    26    20    21   ar
    27    21    22   ar
    28    22    23   ar
    29    24    25   ar
    30    25    26   ar
    31    26    27    1
    32    28    29    1
    33     1    30    1
    34     1    31    1
    35     1    32    1
    36     3    33    1
    37     4    34    1
    38     4    35    1
    39     5    36    1
    40     5    37    1
    41    10    38    1
    42    12    39    1
    43    12    40    1
    44    15    41    1
    45    19    42    1
    46    20    43    1
    47    21    44    1
    48    22    45    1
    49    24    46    1
    50    25    47    1
    51    28    48    1
    52    28    49    1
    53    29    50    1
    54    29    51    1
@<TRIPOS>MOLECULE
../data/bude_mols_rdkit_confs2/molecule_21.pdb
 51 54 0 0 0
SMALL
GASTEIGER

@<TRIPOS>ATOM
      1  C1         4.7050    0.4880    2.9300 C.3     1  UNL1        0.0368
      2  O1         4.0770    0.2860    1.6860 O.3     1  UNL1       -0.3797
      3  C2         4.1690   -1.0500    1.2940 C.3     1  UNL1        0.0612
      4  C3         4.8580   -1.1780   -0.0260 C.3     1  UNL1       -0.0107
      5  C4         3.8740   -1.0650   -1.1420 C.3     1  UNL1        0.0173
      6  N1         2.6730   -0.3560   -0.8360 N.am    1  UNL1       -0.2973
      7  C5         2.1610    0.6350   -1.6850 C.2     1  UNL1        0.2494
      8  O2         2.7870    0.9030   -2.7460 O.2     1  UNL1       -0.2699
      9  C6         0.9320    1.3680   -1.3880 C.ar    1  UNL1        0.0723
     10  C7        -0.2940    0.9130   -1.8150 C.ar    1  UNL1       -0.0433
     11  C8        -1.4960    1.5890   -1.5480 C.ar    1  UNL1       -0.0406
     12  C9        -2.7870    1.0570   -2.0570 C.3     1  UNL1        0.0171
     13  C10       -3.2880   -0.1200   -1.3400 C.ar    1  UNL1        0.0736
     14  N2        -3.0430   -1.3590   -1.8760 N.ar    1  UNL1       -0.1750
     15  N3        -3.4200   -2.4820   -1.2960 N.ar    1  UNL1       -0.2425
     16  C11       -4.0790   -2.5120   -0.1260 C.ar    1  UNL1        0.2725
     17  O3        -4.4210   -3.5990    0.3970 O.2     1  UNL1       -0.2658
     18  C12       -4.3610   -1.3080    0.4720 C.ar    1  UNL1        0.0496
     19  C13       -5.0430   -1.3160    1.6650 C.ar    1  UNL1       -0.0487
     20  C14       -5.3480   -0.1240    2.2800 C.ar    1  UNL1       -0.0610
     21  C15       -4.9450    1.0430    1.6530 C.ar    1  UNL1       -0.0611
     22  C16       -4.2610    1.0320    0.4570 C.ar    1  UNL1       -0.0521
     23  C17       -3.9580   -0.1390   -0.1510 C.ar    1  UNL1        0.0106
     24  C18       -1.3640    2.7470   -0.8260 C.ar    1  UNL1       -0.0555
     25  C19       -0.1330    3.2150   -0.3900 C.ar    1  UNL1       -0.0254
     26  C20        1.0280    2.5320   -0.6650 C.ar    1  UNL1        0.1355
     27  F1         2.2170    3.0210   -0.2220 F       1  UNL1       -0.2047
     28  C21        1.9500   -0.6650    0.3920 C.3     1  UNL1        0.0173
     29  C22        2.7970   -1.6330    1.1980 C.3     1  UNL1       -0.0107
     30 H           4.6214    1.5177    3.2087 H       1  UNL1        0.0524
     31 H           5.7386    0.2215    2.8552 H       1  UNL1        0.0524
     32 H           4.2322   -0.1217    3.6714 H       1  UNL1        0.0524
     33 H           4.7435   -1.5786    2.0257 H       1  UNL1        0.0597
     34 H           5.3430   -2.1303   -0.0792 H       1  UNL1        0.0305
     35 H           5.5779   -0.3918   -0.1184 H       1  UNL1        0.0305
     36 H           3.6038   -2.0552   -1.4442 H       1  UNL1        0.0465
     37 H           4.3623   -0.4975   -1.9065 H       1  UNL1        0.0465
     38 H          -0.3324    0.0351   -2.3561 H       1  UNL1        0.0629
     39 H          -2.6560    0.7907   -3.0850 H       1  UNL1        0.0377
     40 H          -3.5117    1.8309   -1.9127 H       1  UNL1        0.0377
     41 H          -3.2093   -3.3351   -1.7398 H       1  UNL1        0.1921
     42 H          -5.3244   -2.2102    2.0966 H       1  UNL1        0.0625
     43 H          -5.8588   -0.1003    3.1764 H       1  UNL1        0.0618
     44 H          -5.1638    1.9493    2.0954 H       1  UNL1        0.0618
     45 H          -3.9774    1.9235    0.0212 H       1  UNL1        0.0624
     46 H          -2.2114    3.2904   -0.5986 H       1  UNL1        0.0621
     47 H          -0.0879    4.0926    0.1511 H       1  UNL1        0.0646
     48 H           1.0080   -1.1146    0.1565 H       1  UNL1        0.0465
     49 H           1.7669    0.2278    0.9527 H       1  UNL1        0.0465
     50 H           2.3820   -1.7554    2.1766 H       1  UNL1        0.0305
     51 H           2.8258   -2.5934    0.7272 H       1  UNL1        0.0305
@<TRIPOS>BOND
     1     1     2    1
     2     2     3    1
     3     3     4    1
     4     3    29    1
     5     4     5    1
     6     5     6    1
     7     6     7   am
     8     6    28    1
     9     7     8    2
    10     7     9    1
    11     9    10   ar
    12     9    26   ar
    13    10    11   ar
    14    11    12    1
    15    11    24   ar
    16    12    13    1
    17    13    14   ar
    18    13    23   ar
    19    14    15   ar
    20    15    16   ar
    21    16    17    2
    22    16    18   ar
    23    18    19   ar
    24    18    23   ar
    25    19    20   ar
    26    20    21   ar
    27    21    22   ar
    28    22    23   ar
    29    24    25   ar
    30    25    26   ar
    31    26    27    1
    32    28    29    1
    33     1    30    1
    34     1    31    1
    35     1    32    1
    36     3    33    1
    37     4    34    1
    38     4    35    1
    39     5    36    1
    40     5    37    1
    41    10    38    1
    42    12    39    1
    43    12    40    1
    44    15    41    1
    45    19    42    1
    46    20    43    1
    47    21    44    1
    48    22    45    1
    49    24    46    1
    50    25    47    1
    51    28    48    1
    52    28    49    1
    53    29    50    1
    54    29    51    1
@<TRIPOS>MOLECULE
../data/bude_mols_rdkit_confs2/molecule_21.pdb
 51 54 0 0 0
SMALL
GASTEIGER

@<TRIPOS>ATOM
      1  C1         7.4920    0.1800    1.0000 C.3     1  UNL1        0.0368
      2  O1         6.1360    0.0640    1.2740 O.3     1  UNL1       -0.3797
      3  C2         5.4480   -0.5760    0.2360 C.3     1  UNL1        0.0612
      4  C3         4.4580    0.4400   -0.2920 C.3     1  UNL1       -0.0107
      5  C4         3.1250    0.1530    0.3980 C.3     1  UNL1        0.0173
      6  N1         2.6430   -1.0750   -0.2190 N.am    1  UNL1       -0.2973
      7  C5         1.3770   -1.2110   -0.8270 C.2     1  UNL1        0.2494
      8  O2         1.0820   -2.3340   -1.3320 O.2     1  UNL1       -0.2699
      9  C6         0.4040   -0.1250   -0.9010 C.ar    1  UNL1        0.0723
     10  C7        -0.5190   -0.0070    0.1060 C.ar    1  UNL1       -0.0433
     11  C8        -1.4670    1.0270    0.0630 C.ar    1  UNL1       -0.0406
     12  C9        -2.4610    1.1180    1.1880 C.3     1  UNL1        0.0171
     13  C10       -3.6110    0.2080    0.9760 C.ar    1  UNL1        0.0736
     14  N2        -3.5600   -1.0700    1.4630 N.ar    1  UNL1       -0.1750
     15  N3        -4.4950   -1.9590    1.2600 N.ar    1  UNL1       -0.2425
     16  C11       -5.5890   -1.6690    0.5460 C.ar    1  UNL1        0.2725
     17  O3        -6.4550   -2.5520    0.3770 O.2     1  UNL1       -0.2658
     18  C12       -5.7390   -0.4100    0.0120 C.ar    1  UNL1        0.0496
     19  C13       -6.8720   -0.0980   -0.7070 C.ar    1  UNL1       -0.0487
     20  C14       -7.0350    1.1690   -1.2240 C.ar    1  UNL1       -0.0610
     21  C15       -6.0310    2.0810   -0.9870 C.ar    1  UNL1       -0.0611
     22  C16       -4.9060    1.7660   -0.2720 C.ar    1  UNL1       -0.0521
     23  C17       -4.7280    0.5060    0.2480 C.ar    1  UNL1        0.0106
     24  C18       -1.4610    1.9020   -0.9790 C.ar    1  UNL1       -0.0555
     25  C19       -0.5080    1.7660   -2.0040 C.ar    1  UNL1       -0.0254
     26  C20        0.4150    0.7490   -1.9500 C.ar    1  UNL1        0.1355
     27  F1         1.3590    0.5750   -2.9230 F       1  UNL1       -0.2047
     28  C21        3.5590   -2.1930   -0.1820 C.3     1  UNL1        0.0173
     29  C22        4.7070   -1.7800    0.7130 C.3     1  UNL1       -0.0107
     30 H           7.9797    0.6728    1.8150 H       1  UNL1        0.0524
     31 H           7.6275    0.7511    0.1054 H       1  UNL1        0.0524
     32 H           7.9139   -0.7945    0.8685 H       1  UNL1        0.0524
     33 H           6.1380   -0.9124   -0.5094 H       1  UNL1        0.0597
     34 H           4.3542    0.3376   -1.3520 H       1  UNL1        0.0305
     35 H           4.7876    1.4383   -0.0930 H       1  UNL1        0.0305
     36 H           2.4349    0.9539    0.2326 H       1  UNL1        0.0465
     37 H           3.2317    0.0572    1.4583 H       1  UNL1        0.0465
     38 H          -0.5166   -0.6756    0.8921 H       1  UNL1        0.0629
     39 H          -2.8213    2.1235    1.2523 H       1  UNL1        0.0377
     40 H          -1.9688    0.8293    2.0931 H       1  UNL1        0.0377
     41 H          -4.3928   -2.8613    1.6402 H       1  UNL1        0.1921
     42 H          -7.5996   -0.8140   -0.8586 H       1  UNL1        0.0625
     43 H          -7.8751    1.4238   -1.7665 H       1  UNL1        0.0618
     44 H          -6.1298    3.0374   -1.3620 H       1  UNL1        0.0618
     45 H          -4.1813    2.4852   -0.1214 H       1  UNL1        0.0624
     46 H          -2.1552    2.6647   -1.0170 H       1  UNL1        0.0621
     47 H          -0.5016    2.4285   -2.7953 H       1  UNL1        0.0646
     48 H           3.9176   -2.4095   -1.1666 H       1  UNL1        0.0465
     49 H           3.0783   -3.0744    0.1880 H       1  UNL1        0.0465
     50 H           4.3156   -1.5700    1.6864 H       1  UNL1        0.0305
     51 H           5.4046   -2.5913    0.7146 H       1  UNL1        0.0305
@<TRIPOS>BOND
     1     1     2    1
     2     2     3    1
     3     3     4    1
     4     3    29    1
     5     4     5    1
     6     5     6    1
     7     6     7   am
     8     6    28    1
     9     7     8    2
    10     7     9    1
    11     9    10   ar
    12     9    26   ar
    13    10    11   ar
    14    11    12    1
    15    11    24   ar
    16    12    13    1
    17    13    14   ar
    18    13    23   ar
    19    14    15   ar
    20    15    16   ar
    21    16    17    2
    22    16    18   ar
    23    18    19   ar
    24    18    23   ar
    25    19    20   ar
    26    20    21   ar
    27    21    22   ar
    28    22    23   ar
    29    24    25   ar
    30    25    26   ar
    31    26    27    1
    32    28    29    1
    33     1    30    1
    34     1    31    1
    35     1    32    1
    36     3    33    1
    37     4    34    1
    38     4    35    1
    39     5    36    1
    40     5    37    1
    41    10    38    1
    42    12    39    1
    43    12    40    1
    44    15    41    1
    45    19    42    1
    46    20    43    1
    47    21    44    1
    48    22    45    1
    49    24    46    1
    50    25    47    1
    51    28    48    1
    52    28    49    1
    53    29    50    1
    54    29    51    1
@<TRIPOS>MOLECULE
../data/bude_mols_rdkit_confs2/molecule_21.pdb
 51 54 0 0 0
SMALL
GASTEIGER

@<TRIPOS>ATOM
      1  C1         7.0410    0.5230    1.2040 C.3     1  UNL1        0.0368
      2  O1         5.7590    0.7960    0.7730 O.3     1  UNL1       -0.3797
      3  C2         5.3490    0.0100   -0.3010 C.3     1  UNL1        0.0612
      4  C3         4.2580   -0.8990    0.1780 C.3     1  UNL1       -0.0107
      5  C4         2.9770   -0.8080   -0.5890 C.3     1  UNL1        0.0173
      6  N1         2.6940    0.5770   -0.8750 N.am    1  UNL1       -0.2973
      7  C5         1.4940    1.1400   -0.4310 C.2     1  UNL1        0.2494
      8  O2         1.2510    2.3410   -0.6780 O.2     1  UNL1       -0.2699
      9  C6         0.4840    0.3980    0.3200 C.ar    1  UNL1        0.0723
     10  C7        -0.5340   -0.2800   -0.3000 C.ar    1  UNL1       -0.0433
     11  C8        -1.5090   -1.0020    0.3980 C.ar    1  UNL1       -0.0406
     12  C9        -2.5790   -1.7330   -0.3070 C.3     1  UNL1        0.0171
     13  C10       -3.6480   -0.8860   -0.8510 C.ar    1  UNL1        0.0736
     14  N2        -3.5160   -0.4990   -2.1530 N.ar    1  UNL1       -0.1750
     15  N3        -4.3610    0.3050   -2.7680 N.ar    1  UNL1       -0.2425
     16  C11       -5.4310    0.8080   -2.1450 C.ar    1  UNL1        0.2725
     17  O3        -6.2610    1.5790   -2.6960 O.2     1  UNL1       -0.2658
     18  C12       -5.6250    0.4520   -0.8190 C.ar    1  UNL1        0.0496
     19  C13       -6.7190    0.9270   -0.1120 C.ar    1  UNL1       -0.0487
     20  C14       -6.9150    0.5630    1.2010 C.ar    1  UNL1       -0.0610
     21  C15       -6.0150   -0.2800    1.8150 C.ar    1  UNL1       -0.0611
     22  C16       -4.9190   -0.7660    1.1340 C.ar    1  UNL1       -0.0521
     23  C17       -4.7370   -0.3920   -0.1760 C.ar    1  UNL1        0.0106
     24  C18       -1.3880   -0.9940    1.7520 C.ar    1  UNL1       -0.0555
     25  C19       -0.3790   -0.3230    2.4220 C.ar    1  UNL1       -0.0254
     26  C20        0.5510    0.3680    1.6950 C.ar    1  UNL1        0.1355
     27  F1         1.5690    1.0470    2.3450 F       1  UNL1       -0.2047
     28  C21        3.6560    1.3470   -1.6120 C.3     1  UNL1        0.0173
     29  C22        5.0450    0.7640   -1.5460 C.3     1  UNL1       -0.0107
     30 H           7.2844    1.1623    2.0267 H       1  UNL1        0.0524
     31 H           7.7303    0.6937    0.4036 H       1  UNL1        0.0524
     32 H           7.1025   -0.4987    1.5159 H       1  UNL1        0.0524
     33 H           6.1723   -0.5900   -0.6282 H       1  UNL1        0.0597
     34 H           4.0508   -0.6590    1.1999 H       1  UNL1        0.0305
     35 H           4.6185   -1.8970    0.0407 H       1  UNL1        0.0305
     36 H           2.1809   -1.2233   -0.0070 H       1  UNL1        0.0465
     37 H           3.0665   -1.3537   -1.5050 H       1  UNL1        0.0465
     38 H          -0.5836   -0.2568   -1.3305 H       1  UNL1        0.0629
     39 H          -3.0194   -2.4239    0.3812 H       1  UNL1        0.0377
     40 H          -2.1161   -2.2097   -1.1457 H       1  UNL1        0.0377
     41 H          -4.1996    0.5408   -3.7101 H       1  UNL1        0.1921
     42 H          -7.3919    1.5586   -0.5739 H       1  UNL1        0.0625
     43 H          -7.7312    0.9195    1.7222 H       1  UNL1        0.0618
     44 H          -6.1633   -0.5519    2.7994 H       1  UNL1        0.0618
     45 H          -4.2486   -1.3981    1.5987 H       1  UNL1        0.0624
     46 H          -2.0836   -1.5146    2.3089 H       1  UNL1        0.0621
     47 H          -0.3295   -0.3439    3.4526 H       1  UNL1        0.0646
     48 H           3.6816    2.3380   -1.2093 H       1  UNL1        0.0465
     49 H           3.3535    1.3435   -2.6383 H       1  UNL1        0.0465
     50 H           5.1660    0.0988   -2.3753 H       1  UNL1        0.0305
     51 H           5.7201    1.5939   -1.5666 H       1  UNL1        0.0305
@<TRIPOS>BOND
     1     1     2    1
     2     2     3    1
     3     3     4    1
     4     3    29    1
     5     4     5    1
     6     5     6    1
     7     6     7   am
     8     6    28    1
     9     7     8    2
    10     7     9    1
    11     9    10   ar
    12     9    26   ar
    13    10    11   ar
    14    11    12    1
    15    11    24   ar
    16    12    13    1
    17    13    14   ar
    18    13    23   ar
    19    14    15   ar
    20    15    16   ar
    21    16    17    2
    22    16    18   ar
    23    18    19   ar
    24    18    23   ar
    25    19    20   ar
    26    20    21   ar
    27    21    22   ar
    28    22    23   ar
    29    24    25   ar
    30    25    26   ar
    31    26    27    1
    32    28    29    1
    33     1    30    1
    34     1    31    1
    35     1    32    1
    36     3    33    1
    37     4    34    1
    38     4    35    1
    39     5    36    1
    40     5    37    1
    41    10    38    1
    42    12    39    1
    43    12    40    1
    44    15    41    1
    45    19    42    1
    46    20    43    1
    47    21    44    1
    48    22    45    1
    49    24    46    1
    50    25    47    1
    51    28    48    1
    52    28    49    1
    53    29    50    1
    54    29    51    1
@<TRIPOS>MOLECULE
../data/bude_mols_rdkit_confs2/molecule_21.pdb
 51 54 0 0 0
SMALL
GASTEIGER

@<TRIPOS>ATOM
      1  C1         7.3910   -0.0890    0.3230 C.3     1  UNL1        0.0368
      2  O1         6.1210   -0.2220   -0.1980 O.3     1  UNL1       -0.3797
      3  C2         5.2440    0.6690    0.4460 C.3     1  UNL1        0.0612
      4  C3         4.7330    1.6240   -0.5850 C.3     1  UNL1       -0.0107
      5  C4         3.3440    2.0690   -0.1940 C.3     1  UNL1        0.0173
      6  N1         2.4700    0.9190   -0.2910 N.am    1  UNL1       -0.2973
      7  C5         1.1830    1.0480   -0.8330 C.2     1  UNL1        0.2494
      8  O2         0.7800    2.1670   -1.2390 O.2     1  UNL1       -0.2699
      9  C6         0.2560   -0.0710   -0.9570 C.ar    1  UNL1        0.0723
     10  C7        -0.6240   -0.3510    0.0970 C.ar    1  UNL1       -0.0433
     11  C8        -1.5160   -1.3860    0.0380 C.ar    1  UNL1       -0.0406
     12  C9        -2.4990   -1.7550    1.0890 C.3     1  UNL1        0.0171
     13  C10       -3.8610   -1.4460    0.6230 C.ar    1  UNL1        0.0736
     14  N2        -4.5740   -2.4760    0.0650 N.ar    1  UNL1       -0.1750
     15  N3        -5.7690   -2.2860   -0.4150 N.ar    1  UNL1       -0.2425
     16  C11       -6.4070   -1.1080   -0.4150 C.ar    1  UNL1        0.2725
     17  O3        -7.5570   -0.9330   -0.8790 O.2     1  UNL1       -0.2658
     18  C12       -5.7210   -0.0280    0.1440 C.ar    1  UNL1        0.0496
     19  C13       -6.3300    1.2000    0.1810 C.ar    1  UNL1       -0.0487
     20  C14       -5.6290    2.2390    0.7510 C.ar    1  UNL1       -0.0610
     21  C15       -4.3670    2.0790    1.2700 C.ar    1  UNL1       -0.0611
     22  C16       -3.7600    0.8440    1.2300 C.ar    1  UNL1       -0.0521
     23  C17       -4.4370   -0.2130    0.6640 C.ar    1  UNL1        0.0106
     24  C18       -1.4960   -2.1500   -1.1400 C.ar    1  UNL1       -0.0555
     25  C19       -0.6300   -1.8720   -2.1740 C.ar    1  UNL1       -0.0254
     26  C20        0.2640   -0.8270   -2.1050 C.ar    1  UNL1        0.1355
     27  F1         1.1000   -0.5840   -3.1410 F       1  UNL1       -0.2047
     28  C21        3.0100   -0.3410    0.1990 C.3     1  UNL1        0.0173
     29  C22        4.1700   -0.0770    1.1650 C.3     1  UNL1       -0.0107
     30 H           8.0524   -0.7695   -0.1714 H       1  UNL1        0.0524
     31 H           7.3716   -0.3078    1.3702 H       1  UNL1        0.0524
     32 H           7.7343    0.9135    0.1744 H       1  UNL1        0.0524
     33 H           5.7435    1.2336    1.2054 H       1  UNL1        0.0597
     34 H           4.6998    1.1394   -1.5384 H       1  UNL1        0.0305
     35 H           5.3817    2.4727   -0.6461 H       1  UNL1        0.0305
     36 H           3.0080    2.8391   -0.8566 H       1  UNL1        0.0465
     37 H           3.3418    2.4585    0.8026 H       1  UNL1        0.0465
     38 H          -0.5982    0.2408    0.9420 H       1  UNL1        0.0629
     39 H          -2.2930   -1.1993    1.9799 H       1  UNL1        0.0377
     40 H          -2.4231   -2.8024    1.2940 H       1  UNL1        0.0377
     41 H          -6.2356   -3.0605   -0.8044 H       1  UNL1        0.1921
     42 H          -7.2774    1.3401   -0.2036 H       1  UNL1        0.0625
     43 H          -6.0677    3.1723    0.7898 H       1  UNL1        0.0618
     44 H          -3.8748    2.8834    1.6892 H       1  UNL1        0.0618
     45 H          -2.8128    0.7125    1.6180 H       1  UNL1        0.0624
     46 H          -2.1495   -2.9432   -1.2336 H       1  UNL1        0.0621
     47 H          -0.6516   -2.4611   -3.0211 H       1  UNL1        0.0646
     48 H           3.3634   -0.9201   -0.6284 H       1  UNL1        0.0465
     49 H           2.2395   -0.8751    0.7148 H       1  UNL1        0.0465
     50 H           3.8218    0.5051    1.9925 H       1  UNL1        0.0305
     51 H           4.5569   -1.0068    1.5264 H       1  UNL1        0.0305
@<TRIPOS>BOND
     1     1     2    1
     2     2     3    1
     3     3     4    1
     4     3    29    1
     5     4     5    1
     6     5     6    1
     7     6     7   am
     8     6    28    1
     9     7     8    2
    10     7     9    1
    11     9    10   ar
    12     9    26   ar
    13    10    11   ar
    14    11    12    1
    15    11    24   ar
    16    12    13    1
    17    13    14   ar
    18    13    23   ar
    19    14    15   ar
    20    15    16   ar
    21    16    17    2
    22    16    18   ar
    23    18    19   ar
    24    18    23   ar
    25    19    20   ar
    26    20    21   ar
    27    21    22   ar
    28    22    23   ar
    29    24    25   ar
    30    25    26   ar
    31    26    27    1
    32    28    29    1
    33     1    30    1
    34     1    31    1
    35     1    32    1
    36     3    33    1
    37     4    34    1
    38     4    35    1
    39     5    36    1
    40     5    37    1
    41    10    38    1
    42    12    39    1
    43    12    40    1
    44    15    41    1
    45    19    42    1
    46    20    43    1
    47    21    44    1
    48    22    45    1
    49    24    46    1
    50    25    47    1
    51    28    48    1
    52    28    49    1
    53    29    50    1
    54    29    51    1
@<TRIPOS>MOLECULE
../data/bude_mols_rdkit_confs2/molecule_21.pdb
 51 54 0 0 0
SMALL
GASTEIGER

@<TRIPOS>ATOM
      1  C1         7.4750    0.0320   -0.2280 C.3     1  UNL1        0.0368
      2  O1         6.1330   -0.2310   -0.0330 O.3     1  UNL1       -0.3797
      3  C2         5.3680    0.9300    0.0550 C.3     1  UNL1        0.0612
      4  C3         4.3380    0.8850   -1.0260 C.3     1  UNL1       -0.0107
      5  C4         2.9340    0.6740   -0.5260 C.3     1  UNL1        0.0173
      6  N1         2.8460   -0.1950    0.6080 N.am    1  UNL1       -0.2973
      7  C5         1.7510   -1.0780    0.7310 C.2     1  UNL1        0.2494
      8  O2         1.6120   -1.8700    1.7040 O.2     1  UNL1       -0.2699
      9  C6         0.6980   -1.1210   -0.2890 C.ar    1  UNL1        0.0723
     10  C7        -0.3900   -0.2820   -0.1300 C.ar    1  UNL1       -0.0433
     11  C8        -1.3940   -0.3070   -1.0800 C.ar    1  UNL1       -0.0406
     12  C9        -2.5930    0.5590   -0.9860 C.3     1  UNL1        0.0171
     13  C10       -3.6370   -0.1830   -0.2210 C.ar    1  UNL1        0.0736
     14  N2        -3.4390   -1.4110    0.2580 N.ar    1  UNL1       -0.1750
     15  N3        -4.3190   -2.1080    0.9350 N.ar    1  UNL1       -0.2425
     16  C11       -5.5170   -1.5730    1.1810 C.ar    1  UNL1        0.2725
     17  O3        -6.3710   -2.2290    1.8280 O.2     1  UNL1       -0.2658
     18  C12       -5.8230   -0.3020    0.7260 C.ar    1  UNL1        0.0496
     19  C13       -7.0730    0.2540    0.9820 C.ar    1  UNL1       -0.0487
     20  C14       -7.3780    1.5330    0.5240 C.ar    1  UNL1       -0.0610
     21  C15       -6.4020    2.1960   -0.1770 C.ar    1  UNL1       -0.0611
     22  C16       -5.1590    1.6740   -0.4470 C.ar    1  UNL1       -0.0521
     23  C17       -4.8780    0.4010    0.0190 C.ar    1  UNL1        0.0106
     24  C18       -1.2780   -1.1600   -2.1470 C.ar    1  UNL1       -0.0555
     25  C19       -0.2020   -1.9860   -2.3000 C.ar    1  UNL1       -0.0254
     26  C20        0.7980   -1.9680   -1.3630 C.ar    1  UNL1        0.1355
     27  F1         1.9000   -2.7590   -1.4430 F       1  UNL1       -0.2047
     28  C21        3.8690   -0.1690    1.6220 C.3     1  UNL1        0.0173
     29  C22        4.6990    1.0840    1.3820 C.3     1  UNL1       -0.0107
     30 H           8.0141   -0.8903   -0.2882 H       1  UNL1        0.0524
     31 H           7.8479    0.6103    0.5914 H       1  UNL1        0.0524
     32 H           7.6025    0.5797   -1.1383 H       1  UNL1        0.0524
     33 H           6.0190    1.7717   -0.0572 H       1  UNL1        0.0597
     34 H           4.5826    0.0828   -1.6905 H       1  UNL1        0.0305
     35 H           4.3543    1.8397   -1.5088 H       1  UNL1        0.0305
     36 H           2.3537    0.2518   -1.3197 H       1  UNL1        0.0465
     37 H           2.5690    1.6300   -0.2134 H       1  UNL1        0.0465
     38 H          -0.4512    0.3510    0.6828 H       1  UNL1        0.0629
     39 H          -2.9545    0.7868   -1.9670 H       1  UNL1        0.0377
     40 H          -2.3515    1.4769   -0.4921 H       1  UNL1        0.0377
     41 H          -4.0997   -3.0121    1.2570 H       1  UNL1        0.1921
     42 H          -7.7760   -0.2834    1.5130 H       1  UNL1        0.0625
     43 H          -8.2983    1.9639    0.7039 H       1  UNL1        0.0618
     44 H          -6.6142    3.1449   -0.5228 H       1  UNL1        0.0618
     45 H          -4.4586    2.2134   -0.9795 H       1  UNL1        0.0624
     46 H          -2.0273   -1.1782   -2.8564 H       1  UNL1        0.0621
     47 H          -0.1421   -2.6181   -3.1136 H       1  UNL1        0.0646
     48 H           4.4863   -1.0395    1.5441 H       1  UNL1        0.0465
     49 H           3.4372   -0.1602    2.6010 H       1  UNL1        0.0465
     50 H           4.0655    1.9463    1.3742 H       1  UNL1        0.0305
     51 H           5.4245    1.2107    2.1582 H       1  UNL1        0.0305
@<TRIPOS>BOND
     1     1     2    1
     2     2     3    1
     3     3     4    1
     4     3    29    1
     5     4     5    1
     6     5     6    1
     7     6     7   am
     8     6    28    1
     9     7     8    2
    10     7     9    1
    11     9    10   ar
    12     9    26   ar
    13    10    11   ar
    14    11    12    1
    15    11    24   ar
    16    12    13    1
    17    13    14   ar
    18    13    23   ar
    19    14    15   ar
    20    15    16   ar
    21    16    17    2
    22    16    18   ar
    23    18    19   ar
    24    18    23   ar
    25    19    20   ar
    26    20    21   ar
    27    21    22   ar
    28    22    23   ar
    29    24    25   ar
    30    25    26   ar
    31    26    27    1
    32    28    29    1
    33     1    30    1
    34     1    31    1
    35     1    32    1
    36     3    33    1
    37     4    34    1
    38     4    35    1
    39     5    36    1
    40     5    37    1
    41    10    38    1
    42    12    39    1
    43    12    40    1
    44    15    41    1
    45    19    42    1
    46    20    43    1
    47    21    44    1
    48    22    45    1
    49    24    46    1
    50    25    47    1
    51    28    48    1
    52    28    49    1
    53    29    50    1
    54    29    51    1
@<TRIPOS>MOLECULE
../data/bude_mols_rdkit_confs2/molecule_21.pdb
 51 54 0 0 0
SMALL
GASTEIGER

@<TRIPOS>ATOM
      1  C1         5.5580    0.8990   -1.3700 C.3     1  UNL1        0.0368
      2  O1         4.5620    0.6060   -0.4450 O.3     1  UNL1       -0.3797
      3  C2         5.0700   -0.1600    0.6010 C.3     1  UNL1        0.0612
      4  C3         4.3260   -1.4900    0.5880 C.3     1  UNL1       -0.0107
      5  C4         2.8620   -1.2100    0.5690 C.3     1  UNL1        0.0173
      6  N1         2.5820   -0.0370    1.3520 N.am    1  UNL1       -0.2973
      7  C5         1.4930    0.7970    1.0130 C.2     1  UNL1        0.2494
      8  O2         1.2330    1.8100    1.6700 O.2     1  UNL1       -0.2699
      9  C6         0.6670    0.4470   -0.1310 C.ar    1  UNL1        0.0723
     10  C7        -0.4500   -0.3840    0.0110 C.ar    1  UNL1       -0.0433
     11  C8        -1.2720   -0.7630   -1.0000 C.ar    1  UNL1       -0.0406
     12  C9        -2.4690   -1.6330   -0.8440 C.3     1  UNL1        0.0171
     13  C10       -3.7500   -0.9530   -1.0330 C.ar    1  UNL1        0.0736
     14  N2        -4.3090   -1.0450   -2.2780 N.ar    1  UNL1       -0.1750
     15  N3        -5.4340   -0.4330   -2.5600 N.ar    1  UNL1       -0.2425
     16  C11       -6.0810    0.3050   -1.6510 C.ar    1  UNL1        0.2725
     17  O3        -7.1600    0.9120   -1.8670 O.2     1  UNL1       -0.2658
     18  C12       -5.5460    0.4180   -0.3880 C.ar    1  UNL1        0.0496
     19  C13       -6.1760    1.1550    0.5950 C.ar    1  UNL1       -0.0487
     20  C14       -5.6370    1.2480    1.8520 C.ar    1  UNL1       -0.0610
     21  C15       -4.4540    0.6020    2.1510 C.ar    1  UNL1       -0.0611
     22  C16       -3.8110   -0.1340    1.1960 C.ar    1  UNL1       -0.0521
     23  C17       -4.3520   -0.2250   -0.0650 C.ar    1  UNL1        0.0106
     24  C18       -0.9540   -0.2670   -2.2790 C.ar    1  UNL1       -0.0555
     25  C19        0.1350    0.5530   -2.4630 C.ar    1  UNL1       -0.0254
     26  C20        0.9370    0.9070   -1.4010 C.ar    1  UNL1        0.1355
     27  F1         1.9950    1.7180   -1.6390 F       1  UNL1       -0.2047
     28  C21        3.4530    0.2350    2.4840 C.3     1  UNL1        0.0173
     29  C22        4.8380    0.5080    1.9380 C.3     1  UNL1       -0.0107
     30 H           5.1461    1.4871   -2.1634 H       1  UNL1        0.0524
     31 H           5.9531   -0.0117   -1.7692 H       1  UNL1        0.0524
     32 H           6.3412    1.4471   -0.8893 H       1  UNL1        0.0524
     33 H           6.1247   -0.2848    0.4708 H       1  UNL1        0.0597
     34 H           4.5751   -2.0520    1.4638 H       1  UNL1        0.0305
     35 H           4.6030   -2.0578   -0.2756 H       1  UNL1        0.0305
     36 H           2.3348   -2.0457    0.9796 H       1  UNL1        0.0465
     37 H           2.5460   -1.0459   -0.4400 H       1  UNL1        0.0465
     38 H          -0.6651   -0.7355    0.9571 H       1  UNL1        0.0629
     39 H          -2.4539   -2.0462    0.1429 H       1  UNL1        0.0377
     40 H          -2.4050   -2.3743   -1.6130 H       1  UNL1        0.0377
     41 H          -5.8125   -0.5190   -3.4648 H       1  UNL1        0.1921
     42 H          -7.0612    1.6406    0.3814 H       1  UNL1        0.0625
     43 H          -6.1173    1.8030    2.5775 H       1  UNL1        0.0618
     44 H          -4.0538    0.6753    3.0994 H       1  UNL1        0.0618
     45 H          -2.9270   -0.6174    1.4192 H       1  UNL1        0.0624
     46 H          -1.5440   -0.5213   -3.0866 H       1  UNL1        0.0621
     47 H           0.3534    0.9069   -3.4075 H       1  UNL1        0.0646
     48 H           3.4784   -0.6122    3.1371 H       1  UNL1        0.0465
     49 H           3.0953    1.0757    3.0409 H       1  UNL1        0.0465
     50 H           4.9594    1.5646    1.8204 H       1  UNL1        0.0305
     51 H           5.5479    0.1078    2.6314 H       1  UNL1        0.0305
@<TRIPOS>BOND
     1     1     2    1
     2     2     3    1
     3     3     4    1
     4     3    29    1
     5     4     5    1
     6     5     6    1
     7     6     7   am
     8     6    28    1
     9     7     8    2
    10     7     9    1
    11     9    10   ar
    12     9    26   ar
    13    10    11   ar
    14    11    12    1
    15    11    24   ar
    16    12    13    1
    17    13    14   ar
    18    13    23   ar
    19    14    15   ar
    20    15    16   ar
    21    16    17    2
    22    16    18   ar
    23    18    19   ar
    24    18    23   ar
    25    19    20   ar
    26    20    21   ar
    27    21    22   ar
    28    22    23   ar
    29    24    25   ar
    30    25    26   ar
    31    26    27    1
    32    28    29    1
    33     1    30    1
    34     1    31    1
    35     1    32    1
    36     3    33    1
    37     4    34    1
    38     4    35    1
    39     5    36    1
    40     5    37    1
    41    10    38    1
    42    12    39    1
    43    12    40    1
    44    15    41    1
    45    19    42    1
    46    20    43    1
    47    21    44    1
    48    22    45    1
    49    24    46    1
    50    25    47    1
    51    28    48    1
    52    28    49    1
    53    29    50    1
    54    29    51    1
@<TRIPOS>MOLECULE
../data/bude_mols_rdkit_confs2/molecule_21.pdb
 51 54 0 0 0
SMALL
GASTEIGER

@<TRIPOS>ATOM
      1  C1         7.6150   -0.3840   -0.2350 C.3     1  UNL1        0.0368
      2  O1         6.4420   -0.9150    0.2700 O.3     1  UNL1       -0.3797
      3  C2         5.3370   -0.1070    0.0080 C.3     1  UNL1        0.0612
      4  C3         4.2690   -0.7630   -0.7740 C.3     1  UNL1       -0.0107
      5  C4         2.8750   -0.5260   -0.3800 C.3     1  UNL1        0.0173
      6  N1         2.6350    0.4220    0.6460 N.am    1  UNL1       -0.2973
      7  C5         1.3850    0.5140    1.3090 C.2     1  UNL1        0.2494
      8  O2         1.1320    1.3370    2.2250 O.2     1  UNL1       -0.2699
      9  C6         0.3180   -0.3960    0.9170 C.ar    1  UNL1        0.0723
     10  C7        -0.5540    0.0170   -0.0630 C.ar    1  UNL1       -0.0433
     11  C8        -1.6180   -0.7840   -0.5110 C.ar    1  UNL1       -0.0406
     12  C9        -2.5160   -0.2660   -1.5830 C.3     1  UNL1        0.0171
     13  C10       -3.4720    0.6860   -1.0450 C.ar    1  UNL1        0.0736
     14  N2        -3.1500    2.0160   -1.0910 N.ar    1  UNL1       -0.1750
     15  N3        -3.9100    2.9520   -0.5820 N.ar    1  UNL1       -0.2425
     16  C11       -5.0790    2.6720    0.0320 C.ar    1  UNL1        0.2725
     17  O3        -5.7900    3.5920    0.5140 O.2     1  UNL1       -0.2658
     18  C12       -5.4750    1.3680    0.1190 C.ar    1  UNL1        0.0496
     19  C13       -6.6580    0.9930    0.7130 C.ar    1  UNL1       -0.0487
     20  C14       -7.0700   -0.3250    0.7890 C.ar    1  UNL1       -0.0610
     21  C15       -6.2590   -1.2940    0.2450 C.ar    1  UNL1       -0.0611
     22  C16       -5.0630   -0.9010   -0.3540 C.ar    1  UNL1       -0.0521
     23  C17       -4.6550    0.3900   -0.4280 C.ar    1  UNL1        0.0106
     24  C18       -1.7450   -2.0090    0.0820 C.ar    1  UNL1       -0.0555
     25  C19       -0.8490   -2.4190    1.0820 C.ar    1  UNL1       -0.0254
     26  C20        0.1780   -1.6300    1.5050 C.ar    1  UNL1        0.1355
     27  F1         1.0680   -1.9740    2.4640 F       1  UNL1       -0.2047
     28  C21        3.6830    1.3360    1.0490 C.3     1  UNL1        0.0173
     29  C22        4.8910    0.4620    1.3380 C.3     1  UNL1       -0.0107
     30 H           8.4298   -1.0394   -0.0082 H       1  UNL1        0.0524
     31 H           7.7931    0.5733    0.2085 H       1  UNL1        0.0524
     32 H           7.5295   -0.2751   -1.2960 H       1  UNL1        0.0524
     33 H           5.6130    0.6888   -0.6519 H       1  UNL1        0.0597
     34 H           4.4388   -1.8181   -0.7201 H       1  UNL1        0.0305
     35 H           4.3471   -0.3262   -1.7476 H       1  UNL1        0.0305
     36 H           2.4715   -1.4613   -0.0524 H       1  UNL1        0.0465
     37 H           2.4143   -0.1070   -1.2501 H       1  UNL1        0.0465
     38 H          -0.4220    0.9495   -0.4849 H       1  UNL1        0.0629
     39 H          -3.0466   -1.0852   -2.0214 H       1  UNL1        0.0377
     40 H          -1.9182    0.2296   -2.3191 H       1  UNL1        0.0377
     41 H          -3.6198    3.8904   -0.6491 H       1  UNL1        0.1921
     42 H          -7.2624    1.7248    1.1182 H       1  UNL1        0.0625
     43 H          -7.9628   -0.5752    1.2421 H       1  UNL1        0.0618
     44 H          -6.5298   -2.2892    0.2795 H       1  UNL1        0.0618
     45 H          -4.4571   -1.6300   -0.7620 H       1  UNL1        0.0624
     46 H          -2.5083   -2.6397   -0.2087 H       1  UNL1        0.0621
     47 H          -0.9724   -3.3494    1.5111 H       1  UNL1        0.0646
     48 H           3.3925    1.8752    1.9264 H       1  UNL1        0.0465
     49 H           3.8899    2.0631    0.2918 H       1  UNL1        0.0465
     50 H           5.6752    1.0467    1.7717 H       1  UNL1        0.0305
     51 H           4.6487   -0.3167    2.0306 H       1  UNL1        0.0305
@<TRIPOS>BOND
     1     1     2    1
     2     2     3    1
     3     3     4    1
     4     3    29    1
     5     4     5    1
     6     5     6    1
     7     6     7   am
     8     6    28    1
     9     7     8    2
    10     7     9    1
    11     9    10   ar
    12     9    26   ar
    13    10    11   ar
    14    11    12    1
    15    11    24   ar
    16    12    13    1
    17    13    14   ar
    18    13    23   ar
    19    14    15   ar
    20    15    16   ar
    21    16    17    2
    22    16    18   ar
    23    18    19   ar
    24    18    23   ar
    25    19    20   ar
    26    20    21   ar
    27    21    22   ar
    28    22    23   ar
    29    24    25   ar
    30    25    26   ar
    31    26    27    1
    32    28    29    1
    33     1    30    1
    34     1    31    1
    35     1    32    1
    36     3    33    1
    37     4    34    1
    38     4    35    1
    39     5    36    1
    40     5    37    1
    41    10    38    1
    42    12    39    1
    43    12    40    1
    44    15    41    1
    45    19    42    1
    46    20    43    1
    47    21    44    1
    48    22    45    1
    49    24    46    1
    50    25    47    1
    51    28    48    1
    52    28    49    1
    53    29    50    1
    54    29    51    1
@<TRIPOS>MOLECULE
../data/bude_mols_rdkit_confs2/molecule_21.pdb
 51 54 0 0 0
SMALL
GASTEIGER

@<TRIPOS>ATOM
      1  C1         5.6280    1.6990   -3.0010 C.3     1  UNL1        0.0368
      2  O1         5.1000    0.5360   -2.4700 O.3     1  UNL1       -0.3797
      3  C2         4.2270    0.7730   -1.4110 C.3     1  UNL1        0.0612
      4  C3         4.7840    0.1520   -0.1790 C.3     1  UNL1       -0.0107
      5  C4         3.9790   -1.0180    0.3320 C.3     1  UNL1        0.0173
      6  N1         2.6140   -0.5040    0.5080 N.am    1  UNL1       -0.2973
      7  C5         2.0230   -0.4120    1.7850 C.2     1  UNL1        0.2494
      8  O2         2.6900   -0.7940    2.7790 O.2     1  UNL1       -0.2699
      9  C6         0.6890    0.0940    2.0500 C.ar    1  UNL1        0.0723
     10  C7        -0.4300   -0.7070    2.0270 C.ar    1  UNL1       -0.0433
     11  C8        -1.7010   -0.1860    2.2910 C.ar    1  UNL1       -0.0406
     12  C9        -2.8410   -1.1330    2.2550 C.3     1  UNL1        0.0171
     13  C10       -3.2010   -1.4560    0.8480 C.ar    1  UNL1        0.0736
     14  N2        -2.6590   -2.5580    0.2420 N.ar    1  UNL1       -0.1750
     15  N3        -2.8920   -2.8700   -1.0240 N.ar    1  UNL1       -0.2425
     16  C11       -3.6770   -2.1310   -1.8160 C.ar    1  UNL1        0.2725
     17  O3        -3.8710   -2.4710   -3.0330 O.2     1  UNL1       -0.2658
     18  C12       -4.2590   -1.0090   -1.2820 C.ar    1  UNL1        0.0496
     19  C13       -5.0850   -0.2510   -2.0940 C.ar    1  UNL1       -0.0487
     20  C14       -5.6830    0.8670   -1.5480 C.ar    1  UNL1       -0.0610
     21  C15       -5.4470    1.1940   -0.2290 C.ar    1  UNL1       -0.0611
     22  C16       -4.6220    0.4400    0.5840 C.ar    1  UNL1       -0.0521
     23  C17       -4.0140   -0.6800    0.0570 C.ar    1  UNL1        0.0106
     24  C18       -1.7880    1.1440    2.5720 C.ar    1  UNL1       -0.0555
     25  C19       -0.6590    1.9850    2.6000 C.ar    1  UNL1       -0.0254
     26  C20        0.5870    1.4610    2.3380 C.ar    1  UNL1        0.1355
     27  F1         1.7140    2.2080    2.3480 F       1  UNL1       -0.2047
     28  C21        1.9740   -0.1350   -0.7340 C.3     1  UNL1        0.0173
     29  C22        2.8700    0.3160   -1.8180 C.3     1  UNL1       -0.0107
     30 H           6.2881    1.4555   -3.8071 H       1  UNL1        0.0524
     31 H           6.1701    2.2236   -2.2422 H       1  UNL1        0.0524
     32 H           4.8342    2.3176   -3.3645 H       1  UNL1        0.0524
     33 H           4.1231    1.8108   -1.1723 H       1  UNL1        0.0597
     34 H           4.8196    0.8974    0.5878 H       1  UNL1        0.0305
     35 H           5.7537   -0.2237   -0.4309 H       1  UNL1        0.0305
     36 H           4.3721   -1.3641    1.2651 H       1  UNL1        0.0465
     37 H           4.0084   -1.8471   -0.3437 H       1  UNL1        0.0465
     38 H          -0.3294   -1.7111    1.8109 H       1  UNL1        0.0629
     39 H          -3.6840   -0.6889    2.7418 H       1  UNL1        0.0377
     40 H          -2.5599   -2.0348    2.7577 H       1  UNL1        0.0377
     41 H          -2.4707   -3.6779   -1.3970 H       1  UNL1        0.1921
     42 H          -5.2489   -0.5139   -3.0784 H       1  UNL1        0.0625
     43 H          -6.3042    1.4559   -2.1245 H       1  UNL1        0.0618
     44 H          -5.9029    2.0318    0.1650 H       1  UNL1        0.0618
     45 H          -4.4639    0.7102    1.5674 H       1  UNL1        0.0624
     46 H          -2.7154    1.5502    2.7717 H       1  UNL1        0.0621
     47 H          -0.7649    2.9886    2.8157 H       1  UNL1        0.0646
     48 H           1.2883    0.6594   -0.5250 H       1  UNL1        0.0465
     49 H           1.5125   -1.0298   -1.0963 H       1  UNL1        0.0465
     50 H           2.9925   -0.5000   -2.4992 H       1  UNL1        0.0305
     51 H           2.3950    1.1779   -2.2379 H       1  UNL1        0.0305
@<TRIPOS>BOND
     1     1     2    1
     2     2     3    1
     3     3     4    1
     4     3    29    1
     5     4     5    1
     6     5     6    1
     7     6     7   am
     8     6    28    1
     9     7     8    2
    10     7     9    1
    11     9    10   ar
    12     9    26   ar
    13    10    11   ar
    14    11    12    1
    15    11    24   ar
    16    12    13    1
    17    13    14   ar
    18    13    23   ar
    19    14    15   ar
    20    15    16   ar
    21    16    17    2
    22    16    18   ar
    23    18    19   ar
    24    18    23   ar
    25    19    20   ar
    26    20    21   ar
    27    21    22   ar
    28    22    23   ar
    29    24    25   ar
    30    25    26   ar
    31    26    27    1
    32    28    29    1
    33     1    30    1
    34     1    31    1
    35     1    32    1
    36     3    33    1
    37     4    34    1
    38     4    35    1
    39     5    36    1
    40     5    37    1
    41    10    38    1
    42    12    39    1
    43    12    40    1
    44    15    41    1
    45    19    42    1
    46    20    43    1
    47    21    44    1
    48    22    45    1
    49    24    46    1
    50    25    47    1
    51    28    48    1
    52    28    49    1
    53    29    50    1
    54    29    51    1
@<TRIPOS>MOLECULE
../data/bude_mols_rdkit_confs2/molecule_21.pdb
 51 54 0 0 0
SMALL
GASTEIGER

@<TRIPOS>ATOM
      1  C1         7.0310    1.5770    1.2320 C.3     1  UNL1        0.0368
      2  O1         6.5100    1.2230    0.0100 O.3     1  UNL1       -0.3797
      3  C2         5.2960    0.5390    0.0840 C.3     1  UNL1        0.0612
      4  C3         4.2570    1.3740   -0.5870 C.3     1  UNL1       -0.0107
      5  C4         2.9240    0.6800   -0.7320 C.3     1  UNL1        0.0173
      6  N1         3.0340   -0.7460   -0.9380 N.am    1  UNL1       -0.2973
      7  C5         1.9960   -1.6590   -0.6980 C.2     1  UNL1        0.2494
      8  O2         2.2220   -2.8950   -0.9230 O.2     1  UNL1       -0.2699
      9  C6         0.6770   -1.2980   -0.2080 C.ar    1  UNL1        0.0723
     10  C7        -0.3800   -0.9820   -1.0150 C.ar    1  UNL1       -0.0433
     11  C8        -1.6510   -0.6390   -0.5370 C.ar    1  UNL1       -0.0406
     12  C9        -2.7400   -0.3420   -1.5040 C.3     1  UNL1        0.0171
     13  C10       -4.0660   -0.6040   -0.9610 C.ar    1  UNL1        0.0736
     14  N2        -4.6720   -1.8090   -1.1610 N.ar    1  UNL1       -0.1750
     15  N3        -5.8550   -2.0970   -0.6560 N.ar    1  UNL1       -0.2425
     16  C11       -6.5430   -1.2200    0.0900 C.ar    1  UNL1        0.2725
     17  O3        -7.6680   -1.4780    0.5770 O.2     1  UNL1       -0.2658
     18  C12       -6.0050    0.0240    0.3400 C.ar    1  UNL1        0.0496
     19  C13       -6.7130    0.9370    1.0870 C.ar    1  UNL1       -0.0487
     20  C14       -6.1920    2.1780    1.3200 C.ar    1  UNL1       -0.0610
     21  C15       -4.9560    2.4670    0.7860 C.ar    1  UNL1       -0.0611
     22  C16       -4.2420    1.5740    0.0440 C.ar    1  UNL1       -0.0521
     23  C17       -4.7460    0.3130   -0.2050 C.ar    1  UNL1        0.0106
     24  C18       -1.8240   -0.6260    0.8200 C.ar    1  UNL1       -0.0555
     25  C19       -0.7710   -0.9420    1.6880 C.ar    1  UNL1       -0.0254
     26  C20        0.4650   -1.2740    1.1530 C.ar    1  UNL1        0.1355
     27  F1         1.5000   -1.5830    1.9800 F       1  UNL1       -0.2047
     28  C21        4.3190   -1.2270   -1.4230 C.3     1  UNL1        0.0173
     29  C22        5.4410   -0.8290   -0.4960 C.3     1  UNL1       -0.0107
     30 H           7.9566    2.0943    1.0888 H       1  UNL1        0.0524
     31 H           7.2011    0.6966    1.8158 H       1  UNL1        0.0524
     32 H           6.3408    2.2156    1.7425 H       1  UNL1        0.0524
     33 H           4.9880    0.3873    1.0974 H       1  UNL1        0.0597
     34 H           4.6106    1.6343   -1.5627 H       1  UNL1        0.0305
     35 H           4.0978    2.2329    0.0310 H       1  UNL1        0.0305
     36 H           2.4110    1.1043   -1.5697 H       1  UNL1        0.0465
     37 H           2.3933    0.8246    0.1858 H       1  UNL1        0.0465
     38 H          -0.2329   -0.9970   -2.0364 H       1  UNL1        0.0629
     39 H          -2.6004   -0.9504   -2.3731 H       1  UNL1        0.0377
     40 H          -2.6881    0.7012   -1.7363 H       1  UNL1        0.0377
     41 H          -6.2457   -2.9834   -0.8319 H       1  UNL1        0.1921
     42 H          -7.6370    0.6844    1.4710 H       1  UNL1        0.0625
     43 H          -6.7078    2.8763    1.8780 H       1  UNL1        0.0618
     44 H          -4.5523    3.4016    0.9552 H       1  UNL1        0.0618
     45 H          -3.3197    1.8419   -0.3337 H       1  UNL1        0.0624
     46 H          -2.7466   -0.3790    1.2111 H       1  UNL1        0.0621
     47 H          -0.9126   -0.9280    2.7101 H       1  UNL1        0.0646
     48 H           4.5034   -0.8112   -2.3915 H       1  UNL1        0.0465
     49 H           4.2831   -2.2954   -1.4692 H       1  UNL1        0.0465
     50 H           5.4777   -1.5331    0.3089 H       1  UNL1        0.0305
     51 H           6.3370   -0.8229   -1.0808 H       1  UNL1        0.0305
@<TRIPOS>BOND
     1     1     2    1
     2     2     3    1
     3     3     4    1
     4     3    29    1
     5     4     5    1
     6     5     6    1
     7     6     7   am
     8     6    28    1
     9     7     8    2
    10     7     9    1
    11     9    10   ar
    12     9    26   ar
    13    10    11   ar
    14    11    12    1
    15    11    24   ar
    16    12    13    1
    17    13    14   ar
    18    13    23   ar
    19    14    15   ar
    20    15    16   ar
    21    16    17    2
    22    16    18   ar
    23    18    19   ar
    24    18    23   ar
    25    19    20   ar
    26    20    21   ar
    27    21    22   ar
    28    22    23   ar
    29    24    25   ar
    30    25    26   ar
    31    26    27    1
    32    28    29    1
    33     1    30    1
    34     1    31    1
    35     1    32    1
    36     3    33    1
    37     4    34    1
    38     4    35    1
    39     5    36    1
    40     5    37    1
    41    10    38    1
    42    12    39    1
    43    12    40    1
    44    15    41    1
    45    19    42    1
    46    20    43    1
    47    21    44    1
    48    22    45    1
    49    24    46    1
    50    25    47    1
    51    28    48    1
    52    28    49    1
    53    29    50    1
    54    29    51    1
@<TRIPOS>MOLECULE
../data/bude_mols_rdkit_confs2/molecule_21.pdb
 51 54 0 0 0
SMALL
GASTEIGER

@<TRIPOS>ATOM
      1  C1         5.2750   -0.7990   -2.9030 C.3     1  UNL1        0.0368
      2  O1         4.3480   -1.0900   -1.9120 O.3     1  UNL1       -0.3797
      3  C2         4.4240   -0.1430   -0.9230 C.3     1  UNL1        0.0612
      4  C3         3.1220    0.6200   -0.9020 C.3     1  UNL1       -0.0107
      5  C4         2.0250   -0.2060   -0.2660 C.3     1  UNL1        0.0173
      6  N1         2.4710   -0.6450    1.0280 N.am    1  UNL1       -0.2973
      7  C5         1.7340   -0.3190    2.1750 C.2     1  UNL1        0.2494
      8  O2         2.1510   -0.7190    3.3150 O.2     1  UNL1       -0.2699
      9  C6         0.5060    0.4580    2.1640 C.ar    1  UNL1        0.0723
     10  C7        -0.7390   -0.1060    2.0450 C.ar    1  UNL1       -0.0433
     11  C8        -1.9020    0.6420    2.0350 C.ar    1  UNL1       -0.0406
     12  C9        -3.1980   -0.0460    1.9330 C.3     1  UNL1        0.0171
     13  C10       -3.4830   -0.6660    0.6330 C.ar    1  UNL1        0.0736
     14  N2        -3.2230   -2.0060    0.4960 N.ar    1  UNL1       -0.1750
     15  N3        -3.4080   -2.6460   -0.6380 N.ar    1  UNL1       -0.2425
     16  C11       -3.8630   -2.0540   -1.7510 C.ar    1  UNL1        0.2725
     17  O3        -4.0280   -2.7140   -2.8350 O.2     1  UNL1       -0.2658
     18  C12       -4.1480   -0.7080   -1.6920 C.ar    1  UNL1        0.0496
     19  C13       -4.6280   -0.0840   -2.8250 C.ar    1  UNL1       -0.0487
     20  C14       -4.9110    1.2590   -2.7140 C.ar    1  UNL1       -0.0610
     21  C15       -4.7260    1.9430   -1.5390 C.ar    1  UNL1       -0.0611
     22  C16       -4.2440    1.3110   -0.4050 C.ar    1  UNL1       -0.0521
     23  C17       -3.9500   -0.0340   -0.4860 C.ar    1  UNL1        0.0106
     24  C18       -1.8000    1.9960    2.1490 C.ar    1  UNL1       -0.0555
     25  C19       -0.5380    2.5930    2.2720 C.ar    1  UNL1       -0.0254
     26  C20        0.5990    1.8250    2.2780 C.ar    1  UNL1        0.1355
     27  F1         1.8240    2.4420    2.4000 F       1  UNL1       -0.2047
     28  C21        3.6760   -1.4170    1.1240 C.3     1  UNL1        0.0173
     29  C22        4.8080   -0.7120    0.4130 C.3     1  UNL1       -0.0107
     30 H           5.2159   -1.5378   -3.6748 H       1  UNL1        0.0524
     31 H           6.2589   -0.8004   -2.4825 H       1  UNL1        0.0524
     32 H           5.0649    0.1656   -3.3158 H       1  UNL1        0.0524
     33 H           5.2215    0.5358   -1.1424 H       1  UNL1        0.0597
     34 H           2.8414    0.8625   -1.9057 H       1  UNL1        0.0305
     35 H           3.2567    1.5122   -0.3269 H       1  UNL1        0.0305
     36 H           1.8114   -1.0554   -0.8806 H       1  UNL1        0.0465
     37 H           1.1369    0.3823   -0.1656 H       1  UNL1        0.0465
     38 H          -0.8106   -1.1319    1.9593 H       1  UNL1        0.0629
     39 H          -3.9679    0.6696    2.1330 H       1  UNL1        0.0377
     40 H          -3.1614   -0.8484    2.6399 H       1  UNL1        0.0377
     41 H          -3.2019   -3.6081   -0.6709 H       1  UNL1        0.1921
     42 H          -4.7677   -0.5970   -3.7095 H       1  UNL1        0.0625
     43 H          -5.2723    1.7652   -3.5375 H       1  UNL1        0.0618
     44 H          -4.9508    2.9495   -1.4995 H       1  UNL1        0.0618
     45 H          -4.1086    1.8317    0.4757 H       1  UNL1        0.0624
     46 H          -2.6504    2.5807    2.1448 H       1  UNL1        0.0621
     47 H          -0.4633    3.6186    2.3588 H       1  UNL1        0.0646
     48 H           3.5185   -2.3748    0.6739 H       1  UNL1        0.0465
     49 H           3.9327   -1.5350    2.1560 H       1  UNL1        0.0465
     50 H           5.1503    0.0886    1.0349 H       1  UNL1        0.0305
     51 H           5.5671   -1.4443    0.2332 H       1  UNL1        0.0305
@<TRIPOS>BOND
     1     1     2    1
     2     2     3    1
     3     3     4    1
     4     3    29    1
     5     4     5    1
     6     5     6    1
     7     6     7   am
     8     6    28    1
     9     7     8    2
    10     7     9    1
    11     9    10   ar
    12     9    26   ar
    13    10    11   ar
    14    11    12    1
    15    11    24   ar
    16    12    13    1
    17    13    14   ar
    18    13    23   ar
    19    14    15   ar
    20    15    16   ar
    21    16    17    2
    22    16    18   ar
    23    18    19   ar
    24    18    23   ar
    25    19    20   ar
    26    20    21   ar
    27    21    22   ar
    28    22    23   ar
    29    24    25   ar
    30    25    26   ar
    31    26    27    1
    32    28    29    1
    33     1    30    1
    34     1    31    1
    35     1    32    1
    36     3    33    1
    37     4    34    1
    38     4    35    1
    39     5    36    1
    40     5    37    1
    41    10    38    1
    42    12    39    1
    43    12    40    1
    44    15    41    1
    45    19    42    1
    46    20    43    1
    47    21    44    1
    48    22    45    1
    49    24    46    1
    50    25    47    1
    51    28    48    1
    52    28    49    1
    53    29    50    1
    54    29    51    1
@<TRIPOS>MOLECULE
../data/bude_mols_rdkit_confs2/molecule_21.pdb
 51 54 0 0 0
SMALL
GASTEIGER

@<TRIPOS>ATOM
      1  C1        -7.0940   -0.1550    1.4410 C.3     1  UNL1        0.0368
      2  O1        -6.5890   -0.3390    0.1590 O.3     1  UNL1       -0.3797
      3  C2        -5.2420   -0.6570    0.1590 C.3     1  UNL1        0.0612
      4  C3        -4.9060   -1.9410   -0.5220 C.3     1  UNL1       -0.0107
      5  C4        -3.4680   -2.3000   -0.2420 C.3     1  UNL1        0.0173
      6  N1        -2.5790   -1.1740   -0.3890 N.am    1  UNL1       -0.2973
      7  C5        -1.2620   -1.4070   -0.8440 C.2     1  UNL1        0.2494
      8  O2        -0.8830   -2.5670   -1.1100 O.2     1  UNL1       -0.2699
      9  C6        -0.3350   -0.3020   -1.0070 C.ar    1  UNL1        0.0723
     10  C7         0.4520    0.0800    0.0260 C.ar    1  UNL1       -0.0433
     11  C8         1.3710    1.1420   -0.0430 C.ar    1  UNL1       -0.0406
     12  C9         2.1710    1.5000    1.1510 C.3     1  UNL1        0.0171
     13  C10        3.3140    0.6160    1.3920 C.ar    1  UNL1        0.0736
     14  N2         3.0910   -0.4330    2.2430 N.ar    1  UNL1       -0.1750
     15  N3         4.0310   -1.3130    2.4800 N.ar    1  UNL1       -0.2425
     16  C11        5.2280   -1.2330    1.9160 C.ar    1  UNL1        0.2725
     17  O3         6.1360   -2.0780    2.1400 O.2     1  UNL1       -0.2658
     18  C12        5.5180   -0.1940    1.0460 C.ar    1  UNL1        0.0496
     19  C13        6.7650   -0.0800    0.4570 C.ar    1  UNL1       -0.0487
     20  C14        6.9980    0.9870   -0.3880 C.ar    1  UNL1       -0.0610
     21  C15        6.0150    1.9240   -0.6450 C.ar    1  UNL1       -0.0611
     22  C16        4.7710    1.8070   -0.0550 C.ar    1  UNL1       -0.0521
     23  C17        4.5260    0.7530    0.7830 C.ar    1  UNL1        0.0106
     24  C18        1.4250    1.7850   -1.2520 C.ar    1  UNL1       -0.0555
     25  C19        0.6200    1.4040   -2.3310 C.ar    1  UNL1       -0.0254
     26  C20       -0.2710    0.3450   -2.2020 C.ar    1  UNL1        0.1355
     27  F1        -1.0450   -0.0120   -3.2590 F       1  UNL1       -0.2047
     28  C21       -2.9740    0.1880   -0.0950 C.3     1  UNL1        0.0173
     29  C22       -4.4170    0.4410   -0.5250 C.3     1  UNL1       -0.0107
     30 H          -8.1345    0.0877    1.3830 H       1  UNL1        0.0524
     31 H          -6.5676    0.6437    1.9205 H       1  UNL1        0.0524
     32 H          -6.9686   -1.0548    2.0063 H       1  UNL1        0.0524
     33 H          -5.0001   -0.7544    1.1967 H       1  UNL1        0.0597
     34 H          -5.0471   -1.8322   -1.5771 H       1  UNL1        0.0305
     35 H          -5.5445   -2.7167   -0.1537 H       1  UNL1        0.0305
     36 H          -3.1665   -3.0667   -0.9248 H       1  UNL1        0.0465
     37 H          -3.4075   -2.6316    0.7735 H       1  UNL1        0.0465
     38 H           0.3730   -0.4379    0.9151 H       1  UNL1        0.0629
     39 H           1.5310    1.4630    2.0077 H       1  UNL1        0.0377
     40 H           2.5687    2.4775    0.9743 H       1  UNL1        0.0377
     41 H           3.8430   -2.0574    3.0963 H       1  UNL1        0.1921
     42 H           7.5034   -0.7760    0.6448 H       1  UNL1        0.0625
     43 H           7.9225    1.0866   -0.8356 H       1  UNL1        0.0618
     44 H           6.2108    2.7138   -1.2798 H       1  UNL1        0.0618
     45 H           4.0356    2.5059   -0.2439 H       1  UNL1        0.0624
     46 H           2.0793    2.5742   -1.3701 H       1  UNL1        0.0621
     47 H           0.6881    1.9116   -3.2269 H       1  UNL1        0.0646
     48 H          -2.3288    0.8611   -0.6199 H       1  UNL1        0.0465
     49 H          -2.8989    0.3457    0.9606 H       1  UNL1        0.0465
     50 H          -4.7401    1.4086   -0.2021 H       1  UNL1        0.0305
     51 H          -4.5260    0.4173   -1.5892 H       1  UNL1        0.0305
@<TRIPOS>BOND
     1     1     2    1
     2     2     3    1
     3     3     4    1
     4     3    29    1
     5     4     5    1
     6     5     6    1
     7     6     7   am
     8     6    28    1
     9     7     8    2
    10     7     9    1
    11     9    10   ar
    12     9    26   ar
    13    10    11   ar
    14    11    12    1
    15    11    24   ar
    16    12    13    1
    17    13    14   ar
    18    13    23   ar
    19    14    15   ar
    20    15    16   ar
    21    16    17    2
    22    16    18   ar
    23    18    19   ar
    24    18    23   ar
    25    19    20   ar
    26    20    21   ar
    27    21    22   ar
    28    22    23   ar
    29    24    25   ar
    30    25    26   ar
    31    26    27    1
    32    28    29    1
    33     1    30    1
    34     1    31    1
    35     1    32    1
    36     3    33    1
    37     4    34    1
    38     4    35    1
    39     5    36    1
    40     5    37    1
    41    10    38    1
    42    12    39    1
    43    12    40    1
    44    15    41    1
    45    19    42    1
    46    20    43    1
    47    21    44    1
    48    22    45    1
    49    24    46    1
    50    25    47    1
    51    28    48    1
    52    28    49    1
    53    29    50    1
    54    29    51    1
@<TRIPOS>MOLECULE
../data/bude_mols_rdkit_confs2/molecule_21.pdb
 51 54 0 0 0
SMALL
GASTEIGER

@<TRIPOS>ATOM
      1  C1         7.4440    0.0070   -1.1560 C.3     1  UNL1        0.0368
      2  O1         6.2760   -0.7460   -1.3350 O.3     1  UNL1       -0.3797
      3  C2         5.3180   -0.4480   -0.3730 C.3     1  UNL1        0.0612
      4  C3         4.1320    0.1500   -1.0700 C.3     1  UNL1       -0.0107
      5  C4         2.9250    0.3350   -0.2280 C.3     1  UNL1        0.0173
      6  N1         2.6130   -0.8900    0.4340 N.am    1  UNL1       -0.2973
      7  C5         1.3370   -1.0120    1.0760 C.2     1  UNL1        0.2494
      8  O2         0.9920   -2.0750    1.6900 O.2     1  UNL1       -0.2699
      9  C6         0.3710    0.0730    1.0590 C.ar    1  UNL1        0.0723
     10  C7        -0.5520    0.1590    0.0550 C.ar    1  UNL1       -0.0433
     11  C8        -1.5070    1.1800   -0.0240 C.ar    1  UNL1       -0.0406
     12  C9        -2.4270    1.1540   -1.1780 C.3     1  UNL1        0.0171
     13  C10       -3.4900    0.1460   -0.9590 C.ar    1  UNL1        0.0736
     14  N2        -3.2430   -1.0950   -1.4690 N.ar    1  UNL1       -0.1750
     15  N3        -4.0930   -2.0730   -1.2810 N.ar    1  UNL1       -0.2425
     16  C11       -5.2430   -1.9620   -0.5990 C.ar    1  UNL1        0.2725
     17  O3        -6.0380   -2.9080   -0.4320 O.2     1  UNL1       -0.2658
     18  C12       -5.5100   -0.7070   -0.0760 C.ar    1  UNL1        0.0496
     19  C13       -6.6700   -0.4900    0.6240 C.ar    1  UNL1       -0.0487
     20  C14       -6.9670    0.7710    1.1470 C.ar    1  UNL1       -0.0610
     21  C15       -6.0880    1.8160    0.9600 C.ar    1  UNL1       -0.0611
     22  C16       -4.9210    1.6070    0.2590 C.ar    1  UNL1       -0.0521
     23  C17       -4.6430    0.3560   -0.2490 C.ar    1  UNL1        0.0106
     24  C18       -1.5040    2.1300    0.9550 C.ar    1  UNL1       -0.0555
     25  C19       -0.5660    2.0590    1.9920 C.ar    1  UNL1       -0.0254
     26  C20        0.3470    1.0440    2.0300 C.ar    1  UNL1        0.1355
     27  F1         1.2530    0.9660    3.0240 F       1  UNL1       -0.2047
     28  C21        3.5130   -1.9710    0.4710 C.3     1  UNL1        0.0173
     29  C22        4.9750   -1.6400    0.4650 C.3     1  UNL1       -0.0107
     30 H           8.1542   -0.2507   -1.9137 H       1  UNL1        0.0524
     31 H           7.8590   -0.2022   -0.1922 H       1  UNL1        0.0524
     32 H           7.2108    1.0490   -1.2254 H       1  UNL1        0.0524
     33 H           5.7039    0.2664    0.3238 H       1  UNL1        0.0597
     34 H           3.8704   -0.4916   -1.8854 H       1  UNL1        0.0305
     35 H           4.4325    1.1310   -1.3736 H       1  UNL1        0.0305
     36 H           2.1010    0.6265   -0.8453 H       1  UNL1        0.0465
     37 H           3.1123    1.0959    0.5006 H       1  UNL1        0.0465
     38 H          -0.5449   -0.5641   -0.6812 H       1  UNL1        0.0629
     39 H          -1.8787    0.9037   -2.0621 H       1  UNL1        0.0377
     40 H          -2.8766    2.1186   -1.2892 H       1  UNL1        0.0377
     41 H          -3.8728   -2.9514   -1.6672 H       1  UNL1        0.1921
     42 H          -7.3320   -1.2688    0.7661 H       1  UNL1        0.0625
     43 H          -7.8428    0.9197    1.6723 H       1  UNL1        0.0618
     44 H          -6.3031    2.7498    1.3431 H       1  UNL1        0.0618
     45 H          -4.2573    2.3839    0.1146 H       1  UNL1        0.0624
     46 H          -2.1915    2.8992    0.9313 H       1  UNL1        0.0621
     47 H          -0.5645    2.7781    2.7322 H       1  UNL1        0.0646
     48 H           3.3172   -2.5834   -0.3843 H       1  UNL1        0.0465
     49 H           3.3393   -2.4449    1.4145 H       1  UNL1        0.0465
     50 H           5.2815   -1.4450    1.4715 H       1  UNL1        0.0305
     51 H           5.4841   -2.4791    0.0389 H       1  UNL1        0.0305
@<TRIPOS>BOND
     1     1     2    1
     2     2     3    1
     3     3     4    1
     4     3    29    1
     5     4     5    1
     6     5     6    1
     7     6     7   am
     8     6    28    1
     9     7     8    2
    10     7     9    1
    11     9    10   ar
    12     9    26   ar
    13    10    11   ar
    14    11    12    1
    15    11    24   ar
    16    12    13    1
    17    13    14   ar
    18    13    23   ar
    19    14    15   ar
    20    15    16   ar
    21    16    17    2
    22    16    18   ar
    23    18    19   ar
    24    18    23   ar
    25    19    20   ar
    26    20    21   ar
    27    21    22   ar
    28    22    23   ar
    29    24    25   ar
    30    25    26   ar
    31    26    27    1
    32    28    29    1
    33     1    30    1
    34     1    31    1
    35     1    32    1
    36     3    33    1
    37     4    34    1
    38     4    35    1
    39     5    36    1
    40     5    37    1
    41    10    38    1
    42    12    39    1
    43    12    40    1
    44    15    41    1
    45    19    42    1
    46    20    43    1
    47    21    44    1
    48    22    45    1
    49    24    46    1
    50    25    47    1
    51    28    48    1
    52    28    49    1
    53    29    50    1
    54    29    51    1
@<TRIPOS>MOLECULE
../data/bude_mols_rdkit_confs2/molecule_21.pdb
 51 54 0 0 0
SMALL
GASTEIGER

@<TRIPOS>ATOM
      1  C1         7.3000    0.3360   -0.8190 C.3     1  UNL1        0.0368
      2  O1         5.9950    0.5400   -0.3770 O.3     1  UNL1       -0.3797
      3  C2         5.3180   -0.6550   -0.1390 C.3     1  UNL1        0.0612
      4  C3         4.9580   -0.6930    1.3310 C.3     1  UNL1       -0.0107
      5  C4         3.6390   -1.4320    1.5160 C.3     1  UNL1        0.0173
      6  N1         2.6120   -0.5810    0.9450 N.am    1  UNL1       -0.2973
      7  C5         1.3520   -0.3720    1.5710 C.2     1  UNL1        0.2494
      8  O2         1.0890   -0.9310    2.6600 O.2     1  UNL1       -0.2699
      9  C6         0.3820    0.5000    0.9230 C.ar    1  UNL1        0.0723
     10  C7        -0.5310    0.0050    0.0280 C.ar    1  UNL1       -0.0433
     11  C8        -1.4720    0.8340   -0.6080 C.ar    1  UNL1       -0.0406
     12  C9        -2.4200    0.3190   -1.5830 C.3     1  UNL1        0.0171
     13  C10       -3.4710   -0.5840   -1.0670 C.ar    1  UNL1        0.0736
     14  N2        -3.3410   -1.9140   -1.0900 N.ar    1  UNL1       -0.1750
     15  N3        -4.2570   -2.7010   -0.5850 N.ar    1  UNL1       -0.2425
     16  C11       -5.3790   -2.2350   -0.0130 C.ar    1  UNL1        0.2725
     17  O3        -6.2500   -3.0370    0.4700 O.2     1  UNL1       -0.2658
     18  C12       -5.5810   -0.8780    0.0460 C.ar    1  UNL1        0.0496
     19  C13       -6.7390   -0.3960    0.6180 C.ar    1  UNL1       -0.0487
     20  C14       -6.9630    0.9640    0.6680 C.ar    1  UNL1       -0.0610
     21  C15       -6.0210    1.8240    0.1430 C.ar    1  UNL1       -0.0611
     22  C16       -4.8640    1.2950   -0.4260 C.ar    1  UNL1       -0.0521
     23  C17       -4.5940   -0.0420   -0.5000 C.ar    1  UNL1        0.0106
     24  C18       -1.4100    2.1540   -0.2730 C.ar    1  UNL1       -0.0555
     25  C19       -0.4890    2.6730    0.6350 C.ar    1  UNL1       -0.0254
     26  C20        0.4230    1.8380    1.2440 C.ar    1  UNL1        0.1355
     27  F1         1.3410    2.2940    2.1350 F       1  UNL1       -0.2047
     28  C21        2.9290    0.0610   -0.3160 C.3     1  UNL1        0.0173
     29  C22        4.0580   -0.7240   -0.9760 C.3     1  UNL1       -0.0107
     30 H           7.7720    1.2817   -0.9857 H       1  UNL1        0.0524
     31 H           7.2842   -0.2207   -1.7326 H       1  UNL1        0.0524
     32 H           7.8463   -0.2097   -0.0782 H       1  UNL1        0.0524
     33 H           5.9365   -1.4879   -0.4010 H       1  UNL1        0.0597
     34 H           4.8606    0.3068    1.6996 H       1  UNL1        0.0305
     35 H           5.7286   -1.2012    1.8722 H       1  UNL1        0.0305
     36 H           3.4486   -1.5955    2.5562 H       1  UNL1        0.0465
     37 H           3.6597   -2.3898    1.0395 H       1  UNL1        0.0465
     38 H          -0.5275   -1.0048   -0.1850 H       1  UNL1        0.0629
     39 H          -1.8652   -0.2176   -2.3240 H       1  UNL1        0.0377
     40 H          -2.9405    1.1775   -1.9532 H       1  UNL1        0.0377
     41 H          -4.1176   -3.6747   -0.6262 H       1  UNL1        0.1921
     42 H          -7.4356   -1.0503    1.0073 H       1  UNL1        0.0625
     43 H          -7.8269    1.3345    1.0940 H       1  UNL1        0.0618
     44 H          -6.1708    2.8447    0.1712 H       1  UNL1        0.0618
     45 H          -4.1699    1.9525   -0.8146 H       1  UNL1        0.0624
     46 H          -2.0800    2.8027   -0.7148 H       1  UNL1        0.0621
     47 H          -0.4898    3.6821    0.8513 H       1  UNL1        0.0646
     48 H           3.2420    1.0692   -0.1412 H       1  UNL1        0.0465
     49 H           2.0679    0.0771   -0.9509 H       1  UNL1        0.0465
     50 H           3.7608   -1.7466   -1.0799 H       1  UNL1        0.0305
     51 H           4.2588   -0.2965   -1.9361 H       1  UNL1        0.0305
@<TRIPOS>BOND
     1     1     2    1
     2     2     3    1
     3     3     4    1
     4     3    29    1
     5     4     5    1
     6     5     6    1
     7     6     7   am
     8     6    28    1
     9     7     8    2
    10     7     9    1
    11     9    10   ar
    12     9    26   ar
    13    10    11   ar
    14    11    12    1
    15    11    24   ar
    16    12    13    1
    17    13    14   ar
    18    13    23   ar
    19    14    15   ar
    20    15    16   ar
    21    16    17    2
    22    16    18   ar
    23    18    19   ar
    24    18    23   ar
    25    19    20   ar
    26    20    21   ar
    27    21    22   ar
    28    22    23   ar
    29    24    25   ar
    30    25    26   ar
    31    26    27    1
    32    28    29    1
    33     1    30    1
    34     1    31    1
    35     1    32    1
    36     3    33    1
    37     4    34    1
    38     4    35    1
    39     5    36    1
    40     5    37    1
    41    10    38    1
    42    12    39    1
    43    12    40    1
    44    15    41    1
    45    19    42    1
    46    20    43    1
    47    21    44    1
    48    22    45    1
    49    24    46    1
    50    25    47    1
    51    28    48    1
    52    28    49    1
    53    29    50    1
    54    29    51    1
@<TRIPOS>MOLECULE
../data/bude_mols_rdkit_confs2/molecule_21.pdb
 51 54 0 0 0
SMALL
GASTEIGER

@<TRIPOS>ATOM
      1  C1         7.1740    1.0770    1.4200 C.3     1  UNL1        0.0368
      2  O1         6.1320    0.1820    1.1420 O.3     1  UNL1       -0.3797
      3  C2         5.2610    0.7100    0.1810 C.3     1  UNL1        0.0612
      4  C3         5.2690   -0.1660   -1.0360 C.3     1  UNL1       -0.0107
      5  C4         3.9760   -0.0000   -1.8100 C.3     1  UNL1        0.0173
      6  N1         2.9010   -0.4580   -0.9740 N.am    1  UNL1       -0.2973
      7  C5         1.7180   -0.9610   -1.5380 C.2     1  UNL1        0.2494
      8  O2         1.6220   -1.0010   -2.8060 O.2     1  UNL1       -0.2699
      9  C6         0.5920   -1.4400   -0.7080 C.ar    1  UNL1        0.0723
     10  C7        -0.4150   -0.6040   -0.3010 C.ar    1  UNL1       -0.0433
     11  C8        -1.4800   -1.0450    0.4810 C.ar    1  UNL1       -0.0406
     12  C9        -2.5580   -0.1100    0.9060 C.3     1  UNL1        0.0171
     13  C10       -3.6540   -0.0490   -0.0350 C.ar    1  UNL1        0.0736
     14  N2        -3.6260   -0.7920   -1.1510 N.ar    1  UNL1       -0.1750
     15  N3        -4.5960   -0.7820   -2.0510 N.ar    1  UNL1       -0.2425
     16  C11       -5.6910   -0.0180   -1.9130 C.ar    1  UNL1        0.2725
     17  O3        -6.6200   -0.0190   -2.7900 O.2     1  UNL1       -0.2658
     18  C12       -5.7900    0.7730   -0.7910 C.ar    1  UNL1        0.0496
     19  C13       -6.9050    1.5740   -0.6130 C.ar    1  UNL1       -0.0487
     20  C14       -6.9310    2.3370    0.5350 C.ar    1  UNL1       -0.0610
     21  C15       -5.9250    2.3310    1.4750 C.ar    1  UNL1       -0.0611
     22  C16       -4.8230    1.5300    1.2860 C.ar    1  UNL1       -0.0521
     23  C17       -4.7610    0.7530    0.1500 C.ar    1  UNL1        0.0106
     24  C18       -1.5500   -2.3640    0.8750 C.ar    1  UNL1       -0.0555
     25  C19       -0.5350   -3.2010    0.4640 C.ar    1  UNL1       -0.0254
     26  C20        0.5300   -2.7610   -0.3180 C.ar    1  UNL1        0.1355
     27  F1         1.5100   -3.6100   -0.7050 F       1  UNL1       -0.2047
     28  C21        3.0480   -0.3980    0.4570 C.3     1  UNL1        0.0173
     29  C22        3.8990    0.7990    0.8040 C.3     1  UNL1       -0.0107
     30 H           7.8237    0.6506    2.1555 H       1  UNL1        0.0524
     31 H           6.7669    1.9938    1.7923 H       1  UNL1        0.0524
     32 H           7.7269    1.2699    0.5245 H       1  UNL1        0.0524
     33 H           5.5647    1.6868   -0.1330 H       1  UNL1        0.0597
     34 H           5.3721   -1.1877   -0.7352 H       1  UNL1        0.0305
     35 H           6.0893    0.1152   -1.6628 H       1  UNL1        0.0305
     36 H           4.0120   -0.5814   -2.7076 H       1  UNL1        0.0465
     37 H           3.8300    1.0256   -2.0777 H       1  UNL1        0.0465
     38 H          -0.3830    0.3879   -0.5841 H       1  UNL1        0.0629
     39 H          -2.1399    0.8697    1.0069 H       1  UNL1        0.0377
     40 H          -2.9507   -0.4731    1.8328 H       1  UNL1        0.0377
     41 H          -4.5118   -1.3537   -2.8480 H       1  UNL1        0.1921
     42 H          -7.6737    1.5986   -1.3011 H       1  UNL1        0.0625
     43 H          -7.7484    2.9453    0.6985 H       1  UNL1        0.0618
     44 H          -5.9974    2.9241    2.3165 H       1  UNL1        0.0618
     45 H          -4.0593    1.5114    1.9799 H       1  UNL1        0.0624
     46 H          -2.3306   -2.7107    1.4542 H       1  UNL1        0.0621
     47 H          -0.5655   -4.1930    0.7470 H       1  UNL1        0.0646
     48 H           3.5214   -1.2909    0.8085 H       1  UNL1        0.0465
     49 H           2.0873   -0.3099    0.9197 H       1  UNL1        0.0465
     50 H           3.4130    1.6843    0.4505 H       1  UNL1        0.0305
     51 H           4.0192    0.8264    1.8669 H       1  UNL1        0.0305
@<TRIPOS>BOND
     1     1     2    1
     2     2     3    1
     3     3     4    1
     4     3    29    1
     5     4     5    1
     6     5     6    1
     7     6     7   am
     8     6    28    1
     9     7     8    2
    10     7     9    1
    11     9    10   ar
    12     9    26   ar
    13    10    11   ar
    14    11    12    1
    15    11    24   ar
    16    12    13    1
    17    13    14   ar
    18    13    23   ar
    19    14    15   ar
    20    15    16   ar
    21    16    17    2
    22    16    18   ar
    23    18    19   ar
    24    18    23   ar
    25    19    20   ar
    26    20    21   ar
    27    21    22   ar
    28    22    23   ar
    29    24    25   ar
    30    25    26   ar
    31    26    27    1
    32    28    29    1
    33     1    30    1
    34     1    31    1
    35     1    32    1
    36     3    33    1
    37     4    34    1
    38     4    35    1
    39     5    36    1
    40     5    37    1
    41    10    38    1
    42    12    39    1
    43    12    40    1
    44    15    41    1
    45    19    42    1
    46    20    43    1
    47    21    44    1
    48    22    45    1
    49    24    46    1
    50    25    47    1
    51    28    48    1
    52    28    49    1
    53    29    50    1
    54    29    51    1
@<TRIPOS>MOLECULE
../data/bude_mols_rdkit_confs2/molecule_21.pdb
 51 54 0 0 0
SMALL
GASTEIGER

@<TRIPOS>ATOM
      1  C1        -6.8290    0.6670    0.2000 C.3     1  UNL1        0.0368
      2  O1        -5.5620    0.2230    0.4760 O.3     1  UNL1       -0.3797
      3  C2        -5.1800   -0.7430   -0.4470 C.3     1  UNL1        0.0612
      4  C3        -4.8140   -1.9990    0.2940 C.3     1  UNL1       -0.0107
      5  C4        -3.3840   -2.1180    0.6520 C.3     1  UNL1        0.0173
      6  N1        -2.5830   -0.9530    0.5070 N.am    1  UNL1       -0.2973
      7  C5        -1.2980   -0.9170    1.1090 C.2     1  UNL1        0.2494
      8  O2        -0.9060   -1.9180    1.7550 O.2     1  UNL1       -0.2699
      9  C6        -0.3970    0.2330    1.0170 C.ar    1  UNL1        0.0723
     10  C7         0.5180    0.3000   -0.0350 C.ar    1  UNL1       -0.0433
     11  C8         1.3960    1.3240   -0.1990 C.ar    1  UNL1       -0.0406
     12  C9         2.3790    1.3890   -1.2960 C.3     1  UNL1        0.0171
     13  C10        3.7850    1.2610   -0.8660 C.ar    1  UNL1        0.0736
     14  N2         4.5010    2.3990   -0.6690 N.ar    1  UNL1       -0.1750
     15  N3         5.7370    2.3960   -0.2450 N.ar    1  UNL1       -0.2425
     16  C11        6.3470    1.2310    0.0130 C.ar    1  UNL1        0.2725
     17  O3         7.5330    1.1700    0.4230 O.2     1  UNL1       -0.2658
     18  C12        5.6780    0.0470   -0.1680 C.ar    1  UNL1        0.0496
     19  C13        6.2930   -1.1660    0.0810 C.ar    1  UNL1       -0.0487
     20  C14        5.6410   -2.3570   -0.1070 C.ar    1  UNL1       -0.0610
     21  C15        4.3480   -2.3140   -0.5540 C.ar    1  UNL1       -0.0611
     22  C16        3.6930   -1.1350   -0.8160 C.ar    1  UNL1       -0.0521
     23  C17        4.3680    0.0500   -0.6180 C.ar    1  UNL1        0.0106
     24  C18        1.3800    2.3690    0.7350 C.ar    1  UNL1       -0.0555
     25  C19        0.4750    2.2940    1.7680 C.ar    1  UNL1       -0.0254
     26  C20       -0.4130    1.2560    1.9330 C.ar    1  UNL1        0.1355
     27  F1        -1.2980    1.1890    2.9480 F       1  UNL1       -0.2047
     28  C21       -2.9790    0.2390   -0.2220 C.3     1  UNL1        0.0173
     29  C22       -4.0120   -0.1930   -1.2390 C.3     1  UNL1       -0.0107
     30 H          -7.1108    1.4095    0.9170 H       1  UNL1        0.0524
     31 H          -7.5133   -0.1541    0.2491 H       1  UNL1        0.0524
     32 H          -6.8520    1.0922   -0.7816 H       1  UNL1        0.0524
     33 H          -5.9719   -0.9816   -1.1259 H       1  UNL1        0.0597
     34 H          -5.0730   -2.8351   -0.3214 H       1  UNL1        0.0305
     35 H          -5.3526   -1.9693    1.2181 H       1  UNL1        0.0305
     36 H          -2.9590   -2.8809    0.0337 H       1  UNL1        0.0465
     37 H          -3.3771   -2.3310    1.7006 H       1  UNL1        0.0465
     38 H           0.5282   -0.4682   -0.7241 H       1  UNL1        0.0629
     39 H           2.2654    2.3306   -1.7913 H       1  UNL1        0.0377
     40 H           2.1786    0.5538   -1.9342 H       1  UNL1        0.0377
     41 H           6.2177    3.2454   -0.1157 H       1  UNL1        0.1921
     42 H           7.2686   -1.1750    0.4173 H       1  UNL1        0.0625
     43 H           6.1097   -3.2567    0.0823 H       1  UNL1        0.0618
     44 H           3.8448   -3.2031   -0.7001 H       1  UNL1        0.0618
     45 H           2.7177   -1.1368   -1.1534 H       1  UNL1        0.0624
     46 H           2.0265    3.1690    0.6503 H       1  UNL1        0.0621
     47 H           0.4612    3.0603    2.4591 H       1  UNL1        0.0646
     48 H          -2.1319    0.6667   -0.7164 H       1  UNL1        0.0465
     49 H          -3.3783    0.9787    0.4400 H       1  UNL1        0.0465
     50 H          -4.3246    0.6434   -1.8286 H       1  UNL1        0.0305
     51 H          -3.6159   -0.9263   -1.9100 H       1  UNL1        0.0305
@<TRIPOS>BOND
     1     1     2    1
     2     2     3    1
     3     3     4    1
     4     3    29    1
     5     4     5    1
     6     5     6    1
     7     6     7   am
     8     6    28    1
     9     7     8    2
    10     7     9    1
    11     9    10   ar
    12     9    26   ar
    13    10    11   ar
    14    11    12    1
    15    11    24   ar
    16    12    13    1
    17    13    14   ar
    18    13    23   ar
    19    14    15   ar
    20    15    16   ar
    21    16    17    2
    22    16    18   ar
    23    18    19   ar
    24    18    23   ar
    25    19    20   ar
    26    20    21   ar
    27    21    22   ar
    28    22    23   ar
    29    24    25   ar
    30    25    26   ar
    31    26    27    1
    32    28    29    1
    33     1    30    1
    34     1    31    1
    35     1    32    1
    36     3    33    1
    37     4    34    1
    38     4    35    1
    39     5    36    1
    40     5    37    1
    41    10    38    1
    42    12    39    1
    43    12    40    1
    44    15    41    1
    45    19    42    1
    46    20    43    1
    47    21    44    1
    48    22    45    1
    49    24    46    1
    50    25    47    1
    51    28    48    1
    52    28    49    1
    53    29    50    1
    54    29    51    1
@<TRIPOS>MOLECULE
../data/bude_mols_rdkit_confs2/molecule_21.pdb
 51 54 0 0 0
SMALL
GASTEIGER

@<TRIPOS>ATOM
      1  C1         6.9330   -1.0880    1.7150 C.3     1  UNL1        0.0368
      2  O1         5.6280   -1.1410    1.1830 O.3     1  UNL1       -0.3797
      3  C2         5.4030   -0.0760    0.3150 C.3     1  UNL1        0.0612
      4  C3         5.0850   -0.6510   -1.0640 C.3     1  UNL1       -0.0107
      5  C4         4.2410    0.3580   -1.8510 C.3     1  UNL1        0.0173
      6  N1         2.9610    0.4400   -1.1740 N.am    1  UNL1       -0.2973
      7  C5         1.7830    0.7590   -1.8560 C.2     1  UNL1        0.2494
      8  O2         1.8450    0.9830   -3.1090 O.2     1  UNL1       -0.2699
      9  C6         0.5240    0.8300   -1.1420 C.ar    1  UNL1        0.0723
     10  C7        -0.3050   -0.2590   -0.9940 C.ar    1  UNL1       -0.0433
     11  C8        -1.5090   -0.2210   -0.3230 C.ar    1  UNL1       -0.0406
     12  C9        -2.3600   -1.4560   -0.1930 C.3     1  UNL1        0.0171
     13  C10       -3.4950   -1.2560    0.7080 C.ar    1  UNL1        0.0736
     14  N2        -3.4800   -1.7110    1.9750 N.ar    1  UNL1       -0.1750
     15  N3        -4.4650   -1.5500    2.8300 N.ar    1  UNL1       -0.2425
     16  C11       -5.5780   -0.9080    2.4970 C.ar    1  UNL1        0.2725
     17  O3        -6.5480   -0.7270    3.2770 O.2     1  UNL1       -0.2658
     18  C12       -5.6940   -0.4010    1.2140 C.ar    1  UNL1        0.0496
     19  C13       -6.8130    0.2650    0.8060 C.ar    1  UNL1       -0.0487
     20  C14       -6.9400    0.7640   -0.4560 C.ar    1  UNL1       -0.0610
     21  C15       -5.8810    0.5770   -1.3380 C.ar    1  UNL1       -0.0611
     22  C16       -4.7370   -0.0870   -0.9650 C.ar    1  UNL1       -0.0521
     23  C17       -4.6550   -0.5730    0.3200 C.ar    1  UNL1        0.0106
     24  C18       -1.8770    0.9920    0.2210 C.ar    1  UNL1       -0.0555
     25  C19       -1.0580    2.1090    0.0870 C.ar    1  UNL1       -0.0254
     26  C20        0.1400    2.0420   -0.5900 C.ar    1  UNL1        0.1355
     27  F1         0.9540    3.1250   -0.7320 F       1  UNL1       -0.2047
     28  C21        2.9420    0.1810    0.2380 C.3     1  UNL1        0.0173
     29  C22        4.2490    0.7280    0.8260 C.3     1  UNL1       -0.0107
     30 H           7.0819   -1.9148    2.3776 H       1  UNL1        0.0524
     31 H           7.0619   -0.1721    2.2530 H       1  UNL1        0.0524
     32 H           7.6453   -1.1368    0.9181 H       1  UNL1        0.0524
     33 H           6.2620    0.5586    0.2497 H       1  UNL1        0.0597
     34 H           4.5389   -1.5644   -0.9532 H       1  UNL1        0.0305
     35 H           5.9961   -0.8443   -1.5906 H       1  UNL1        0.0305
     36 H           4.1060    0.0216   -2.8577 H       1  UNL1        0.0465
     37 H           4.7193    1.3143   -1.8921 H       1  UNL1        0.0465
     38 H          -0.0081   -1.1559   -1.4094 H       1  UNL1        0.0629
     39 H          -1.7549   -2.2523    0.1874 H       1  UNL1        0.0377
     40 H          -2.7487   -1.6891   -1.1623 H       1  UNL1        0.0377
     41 H          -4.3751   -1.9146    3.7401 H       1  UNL1        0.1921
     42 H          -7.5882    0.3951    1.4747 H       1  UNL1        0.0625
     43 H          -7.7942    1.2643   -0.7476 H       1  UNL1        0.0618
     44 H          -5.9563    0.9468   -2.2985 H       1  UNL1        0.0618
     45 H          -3.9597   -0.2178   -1.6311 H       1  UNL1        0.0624
     46 H          -2.7695    1.0720    0.7330 H       1  UNL1        0.0621
     47 H          -1.3540    3.0058    0.5032 H       1  UNL1        0.0646
     48 H           2.8745   -0.8721    0.4152 H       1  UNL1        0.0465
     49 H           2.0972    0.6519    0.6957 H       1  UNL1        0.0465
     50 H           4.3703    1.7504    0.5348 H       1  UNL1        0.0305
     51 H           4.2141    0.6620    1.8934 H       1  UNL1        0.0305
@<TRIPOS>BOND
     1     1     2    1
     2     2     3    1
     3     3     4    1
     4     3    29    1
     5     4     5    1
     6     5     6    1
     7     6     7   am
     8     6    28    1
     9     7     8    2
    10     7     9    1
    11     9    10   ar
    12     9    26   ar
    13    10    11   ar
    14    11    12    1
    15    11    24   ar
    16    12    13    1
    17    13    14   ar
    18    13    23   ar
    19    14    15   ar
    20    15    16   ar
    21    16    17    2
    22    16    18   ar
    23    18    19   ar
    24    18    23   ar
    25    19    20   ar
    26    20    21   ar
    27    21    22   ar
    28    22    23   ar
    29    24    25   ar
    30    25    26   ar
    31    26    27    1
    32    28    29    1
    33     1    30    1
    34     1    31    1
    35     1    32    1
    36     3    33    1
    37     4    34    1
    38     4    35    1
    39     5    36    1
    40     5    37    1
    41    10    38    1
    42    12    39    1
    43    12    40    1
    44    15    41    1
    45    19    42    1
    46    20    43    1
    47    21    44    1
    48    22    45    1
    49    24    46    1
    50    25    47    1
    51    28    48    1
    52    28    49    1
    53    29    50    1
    54    29    51    1
@<TRIPOS>MOLECULE
../data/bude_mols_rdkit_confs2/molecule_21.pdb
 51 54 0 0 0
SMALL
GASTEIGER

@<TRIPOS>ATOM
      1  C1         7.2640    0.8880   -1.5490 C.3     1  UNL1        0.0368
      2  O1         5.8980    0.8680   -1.8030 O.3     1  UNL1       -0.3797
      3  C2         5.1430    0.5990   -0.6600 C.3     1  UNL1        0.0612
      4  C3         4.2990    1.7770   -0.2760 C.3     1  UNL1       -0.0107
      5  C4         3.5680    1.3780    1.0130 C.3     1  UNL1        0.0173
      6  N1         2.6440    0.3370    0.6240 N.am    1  UNL1       -0.2973
      7  C5         1.3520    0.3260    1.1960 C.2     1  UNL1        0.2494
      8  O2         1.0410    1.2130    2.0230 O.2     1  UNL1       -0.2699
      9  C6         0.3360   -0.6750    0.8770 C.ar    1  UNL1        0.0723
     10  C7        -0.5650   -0.4760   -0.1690 C.ar    1  UNL1       -0.0433
     11  C8        -1.5360   -1.3830   -0.5060 C.ar    1  UNL1       -0.0406
     12  C9        -2.4910   -1.1300   -1.6190 C.3     1  UNL1        0.0171
     13  C10       -3.8840   -0.9480   -1.2030 C.ar    1  UNL1        0.0736
     14  N2        -4.7580   -2.0090   -1.2550 N.ar    1  UNL1       -0.1750
     15  N3        -5.9980   -1.8970   -0.8570 N.ar    1  UNL1       -0.2425
     16  C11       -6.5330   -0.7830   -0.3750 C.ar    1  UNL1        0.2725
     17  O3        -7.7200   -0.6970    0.0010 O.2     1  UNL1       -0.2658
     18  C12       -5.7150    0.3400   -0.2890 C.ar    1  UNL1        0.0496
     19  C13       -6.2080    1.5310    0.1920 C.ar    1  UNL1       -0.0487
     20  C14       -5.4360    2.6680    0.2820 C.ar    1  UNL1       -0.0610
     21  C15       -4.1360    2.5350   -0.1430 C.ar    1  UNL1       -0.0611
     22  C16       -3.5970    1.3620   -0.6320 C.ar    1  UNL1       -0.0521
     23  C17       -4.3950    0.2210   -0.7130 C.ar    1  UNL1        0.0106
     24  C18       -1.6480   -2.5810    0.2230 C.ar    1  UNL1       -0.0555
     25  C19       -0.7550   -2.7630    1.2490 C.ar    1  UNL1       -0.0254
     26  C20        0.2160   -1.8490    1.5820 C.ar    1  UNL1        0.1355
     27  F1         1.0940   -2.0650    2.6180 F       1  UNL1       -0.2047
     28  C21        2.9920   -0.6760   -0.3160 C.3     1  UNL1        0.0173
     29  C22        4.3960   -0.6860   -0.7780 C.3     1  UNL1       -0.0107
     30 H           7.7923    1.0977   -2.4555 H       1  UNL1        0.0524
     31 H           7.5703   -0.0646   -1.1699 H       1  UNL1        0.0524
     32 H           7.4813    1.6463   -0.8260 H       1  UNL1        0.0524
     33 H           5.8125    0.4497    0.1612 H       1  UNL1        0.0597
     34 H           3.5934    1.9958   -1.0500 H       1  UNL1        0.0305
     35 H           4.8956    2.6532   -0.1306 H       1  UNL1        0.0305
     36 H           3.0394    2.2155    1.4181 H       1  UNL1        0.0465
     37 H           4.2479    1.0444    1.7689 H       1  UNL1        0.0465
     38 H          -0.4973    0.3966   -0.7158 H       1  UNL1        0.0629
     39 H          -2.4497   -1.9632   -2.2891 H       1  UNL1        0.0377
     40 H          -2.1888   -0.2090   -2.0721 H       1  UNL1        0.0377
     41 H          -6.5737   -2.6932   -0.9192 H       1  UNL1        0.1921
     42 H          -7.1930    1.5740    0.4967 H       1  UNL1        0.0625
     43 H          -5.8087    3.5596    0.6442 H       1  UNL1        0.0618
     44 H          -3.5240    3.3645   -0.0935 H       1  UNL1        0.0618
     45 H          -2.6111    1.3296   -0.9353 H       1  UNL1        0.0624
     46 H          -2.3657   -3.2875   -0.0025 H       1  UNL1        0.0621
     47 H          -0.8158   -3.6332    1.8004 H       1  UNL1        0.0646
     48 H           2.3668   -0.5519   -1.1755 H       1  UNL1        0.0465
     49 H           2.8547   -1.6033    0.1999 H       1  UNL1        0.0465
     50 H           4.9216   -1.4216   -0.2057 H       1  UNL1        0.0305
     51 H           4.3481   -0.8911   -1.8271 H       1  UNL1        0.0305
@<TRIPOS>BOND
     1     1     2    1
     2     2     3    1
     3     3     4    1
     4     3    29    1
     5     4     5    1
     6     5     6    1
     7     6     7   am
     8     6    28    1
     9     7     8    2
    10     7     9    1
    11     9    10   ar
    12     9    26   ar
    13    10    11   ar
    14    11    12    1
    15    11    24   ar
    16    12    13    1
    17    13    14   ar
    18    13    23   ar
    19    14    15   ar
    20    15    16   ar
    21    16    17    2
    22    16    18   ar
    23    18    19   ar
    24    18    23   ar
    25    19    20   ar
    26    20    21   ar
    27    21    22   ar
    28    22    23   ar
    29    24    25   ar
    30    25    26   ar
    31    26    27    1
    32    28    29    1
    33     1    30    1
    34     1    31    1
    35     1    32    1
    36     3    33    1
    37     4    34    1
    38     4    35    1
    39     5    36    1
    40     5    37    1
    41    10    38    1
    42    12    39    1
    43    12    40    1
    44    15    41    1
    45    19    42    1
    46    20    43    1
    47    21    44    1
    48    22    45    1
    49    24    46    1
    50    25    47    1
    51    28    48    1
    52    28    49    1
    53    29    50    1
    54    29    51    1
@<TRIPOS>MOLECULE
../data/bude_mols_rdkit_confs2/molecule_21.pdb
 51 54 0 0 0
SMALL
GASTEIGER

@<TRIPOS>ATOM
      1  C1        -7.2060    0.5250   -0.1640 C.3     1  UNL1        0.0368
      2  O1        -5.9370    0.0920    0.2140 O.3     1  UNL1       -0.3797
      3  C2        -4.9380    0.8110   -0.4390 C.3     1  UNL1        0.0612
      4  C3        -4.2060    1.6050    0.6110 C.3     1  UNL1       -0.0107
      5  C4        -3.6250    0.5820    1.5960 C.3     1  UNL1        0.0173
      6  N1        -2.6480   -0.1610    0.8540 N.am    1  UNL1       -0.2973
      7  C5        -1.3210   -0.2520    1.3210 C.2     1  UNL1        0.2494
      8  O2        -1.0080    0.3270    2.3960 O.2     1  UNL1       -0.2699
      9  C6        -0.2840   -0.9980    0.6010 C.ar    1  UNL1        0.0723
     10  C7         0.5320   -0.4420   -0.3640 C.ar    1  UNL1       -0.0433
     11  C8         1.4950   -1.1650   -1.0210 C.ar    1  UNL1       -0.0406
     12  C9         2.3750   -0.5640   -2.0410 C.3     1  UNL1        0.0171
     13  C10        3.7560   -0.4290   -1.5500 C.ar    1  UNL1        0.0736
     14  N2         4.6200   -1.4340   -1.8700 N.ar    1  UNL1       -0.1750
     15  N3         5.8690   -1.4820   -1.4670 N.ar    1  UNL1       -0.2425
     16  C11        6.4020   -0.5210   -0.6910 C.ar    1  UNL1        0.2725
     17  O3         7.5940   -0.5560   -0.3000 O.2     1  UNL1       -0.2658
     18  C12        5.5730    0.5430   -0.3240 C.ar    1  UNL1        0.0496
     19  C13        6.0740    1.5590    0.4590 C.ar    1  UNL1       -0.0487
     20  C14        5.2480    2.6080    0.8010 C.ar    1  UNL1       -0.0610
     21  C15        3.9380    2.6340    0.3600 C.ar    1  UNL1       -0.0611
     22  C16        3.4190    1.6360   -0.4180 C.ar    1  UNL1       -0.0521
     23  C17        4.2590    0.5730   -0.7610 C.ar    1  UNL1        0.0106
     24  C18        1.6730   -2.5220   -0.7170 C.ar    1  UNL1       -0.0555
     25  C19        0.8700   -3.0840    0.2390 C.ar    1  UNL1       -0.0254
     26  C20       -0.1090   -2.3310    0.9010 C.ar    1  UNL1        0.1355
     27  F1        -0.8660   -2.9530    1.8360 F       1  UNL1       -0.2047
     28  C21       -3.0160   -0.8170   -0.3690 C.3     1  UNL1        0.0173
     29  C22       -4.0260   -0.1040   -1.1990 C.3     1  UNL1       -0.0107
     30 H          -7.9471   -0.0466    0.3547 H       1  UNL1        0.0524
     31 H          -7.3281    0.3938   -1.2189 H       1  UNL1        0.0524
     32 H          -7.3175    1.5604    0.0819 H       1  UNL1        0.0524
     33 H          -5.3555    1.4740   -1.1677 H       1  UNL1        0.0597
     34 H          -4.8817    2.2633    1.1159 H       1  UNL1        0.0305
     35 H          -3.4361    2.2079    0.1767 H       1  UNL1        0.0305
     36 H          -4.3947   -0.0688    1.9550 H       1  UNL1        0.0465
     37 H          -3.1925    1.0588    2.4507 H       1  UNL1        0.0465
     38 H           0.4129    0.5556   -0.6000 H       1  UNL1        0.0629
     39 H           2.0003    0.4053   -2.2960 H       1  UNL1        0.0377
     40 H           2.3842   -1.2060   -2.8969 H       1  UNL1        0.0377
     41 H           6.4310   -2.2426   -1.7405 H       1  UNL1        0.1921
     42 H           7.0530    1.5353    0.7847 H       1  UNL1        0.0625
     43 H           5.6085    3.3764    1.3881 H       1  UNL1        0.0618
     44 H           3.3350    3.4284    0.6252 H       1  UNL1        0.0618
     45 H           2.4394    1.6669   -0.7411 H       1  UNL1        0.0624
     46 H           2.3910   -3.0830   -1.2015 H       1  UNL1        0.0621
     47 H           0.9880   -4.0813    0.4766 H       1  UNL1        0.0646
     48 H          -3.4129   -1.7791   -0.1207 H       1  UNL1        0.0465
     49 H          -2.1252   -0.8580   -0.9604 H       1  UNL1        0.0465
     50 H          -3.5041    0.4787   -1.9291 H       1  UNL1        0.0305
     51 H          -4.6499   -0.8608   -1.6266 H       1  UNL1        0.0305
@<TRIPOS>BOND
     1     1     2    1
     2     2     3    1
     3     3     4    1
     4     3    29    1
     5     4     5    1
     6     5     6    1
     7     6     7   am
     8     6    28    1
     9     7     8    2
    10     7     9    1
    11     9    10   ar
    12     9    26   ar
    13    10    11   ar
    14    11    12    1
    15    11    24   ar
    16    12    13    1
    17    13    14   ar
    18    13    23   ar
    19    14    15   ar
    20    15    16   ar
    21    16    17    2
    22    16    18   ar
    23    18    19   ar
    24    18    23   ar
    25    19    20   ar
    26    20    21   ar
    27    21    22   ar
    28    22    23   ar
    29    24    25   ar
    30    25    26   ar
    31    26    27    1
    32    28    29    1
    33     1    30    1
    34     1    31    1
    35     1    32    1
    36     3    33    1
    37     4    34    1
    38     4    35    1
    39     5    36    1
    40     5    37    1
    41    10    38    1
    42    12    39    1
    43    12    40    1
    44    15    41    1
    45    19    42    1
    46    20    43    1
    47    21    44    1
    48    22    45    1
    49    24    46    1
    50    25    47    1
    51    28    48    1
    52    28    49    1
    53    29    50    1
    54    29    51    1
@<TRIPOS>MOLECULE
../data/bude_mols_rdkit_confs2/molecule_21.pdb
 51 54 0 0 0
SMALL
GASTEIGER

@<TRIPOS>ATOM
      1  C1         6.2210    0.3570    2.5210 C.3     1  UNL1        0.0368
      2  O1         5.1630   -0.0410    1.7030 O.3     1  UNL1       -0.3797
      3  C2         5.5030    0.0130    0.3600 C.3     1  UNL1        0.0612
      4  C3         4.4840    0.8980   -0.3300 C.3     1  UNL1       -0.0107
      5  C4         3.1230    0.4540    0.2050 C.3     1  UNL1        0.0173
      6  N1         2.9240   -0.9000   -0.2680 N.am    1  UNL1       -0.2973
      7  C5         1.7600   -1.2590   -1.0230 C.2     1  UNL1        0.2494
      8  O2         1.6220   -2.4460   -1.4170 O.2     1  UNL1       -0.2699
      9  C6         0.7290   -0.2800   -1.3440 C.ar    1  UNL1        0.0723
     10  C7        -0.3590   -0.0560   -0.4980 C.ar    1  UNL1       -0.0433
     11  C8        -1.3320    0.8710   -0.8060 C.ar    1  UNL1       -0.0406
     12  C9        -2.5070    1.1380    0.0690 C.3     1  UNL1        0.0171
     13  C10       -3.5980    0.2200   -0.3500 C.ar    1  UNL1        0.0736
     14  N2        -3.4720   -0.6720   -1.3550 N.ar    1  UNL1       -0.1750
     15  N3        -4.4040   -1.4840   -1.7410 N.ar    1  UNL1       -0.2425
     16  C11       -5.5970   -1.4830   -1.1390 C.ar    1  UNL1        0.2725
     17  O3        -6.5360   -2.2500   -1.4740 O.2     1  UNL1       -0.2658
     18  C12       -5.8350   -0.6170   -0.1040 C.ar    1  UNL1        0.0496
     19  C13       -7.0440   -0.5620    0.5640 C.ar    1  UNL1       -0.0487
     20  C14       -7.2240    0.3310    1.5970 C.ar    1  UNL1       -0.0610
     21  C15       -6.2160    1.1860    1.9910 C.ar    1  UNL1       -0.0611
     22  C16       -5.0010    1.1320    1.3210 C.ar    1  UNL1       -0.0521
     23  C17       -4.8270    0.2380    0.2890 C.ar    1  UNL1        0.0106
     24  C18       -1.1870    1.5710   -1.9870 C.ar    1  UNL1       -0.0555
     25  C19       -0.1110    1.3490   -2.8220 C.ar    1  UNL1       -0.0254
     26  C20        0.8680    0.4230   -2.5230 C.ar    1  UNL1        0.1355
     27  F1         1.9190    0.2190   -3.3570 F       1  UNL1       -0.2047
     28  C21        3.9360   -1.8850    0.0420 C.3     1  UNL1        0.0173
     29  C22        5.3310   -1.3810   -0.2110 C.3     1  UNL1       -0.0107
     30 H           5.9196    0.3015    3.5462 H       1  UNL1        0.0524
     31 H           6.4959    1.3636    2.2840 H       1  UNL1        0.0524
     32 H           7.0588   -0.2889    2.3601 H       1  UNL1        0.0524
     33 H           6.5010    0.3755    0.2275 H       1  UNL1        0.0597
     34 H           4.5301    0.7636   -1.3905 H       1  UNL1        0.0305
     35 H           4.6656    1.9347   -0.1373 H       1  UNL1        0.0305
     36 H           2.3511    1.0943   -0.1681 H       1  UNL1        0.0465
     37 H           3.0899    0.5021    1.2734 H       1  UNL1        0.0465
     38 H          -0.4366   -0.5966    0.3777 H       1  UNL1        0.0629
     39 H          -2.8221    2.1543   -0.0436 H       1  UNL1        0.0377
     40 H          -2.2545    0.9769    1.0962 H       1  UNL1        0.0377
     41 H          -4.2323   -2.1069   -2.4838 H       1  UNL1        0.1921
     42 H          -7.8137   -1.1917    0.2880 H       1  UNL1        0.0625
     43 H          -8.1321    0.3610    2.0864 H       1  UNL1        0.0618
     44 H          -6.3616    1.8511    2.7665 H       1  UNL1        0.0618
     45 H          -4.2302    1.7607    1.5962 H       1  UNL1        0.0624
     46 H          -1.8962    2.2730   -2.2502 H       1  UNL1        0.0621
     47 H          -0.0360    1.8918   -3.6965 H       1  UNL1        0.0646
     48 H           3.7690   -2.7504   -0.5647 H       1  UNL1        0.0465
     49 H           3.8579   -2.1127    1.0846 H       1  UNL1        0.0465
     50 H           6.0336   -2.0410    0.2534 H       1  UNL1        0.0305
     51 H           5.5004   -1.3461   -1.2669 H       1  UNL1        0.0305
@<TRIPOS>BOND
     1     1     2    1
     2     2     3    1
     3     3     4    1
     4     3    29    1
     5     4     5    1
     6     5     6    1
     7     6     7   am
     8     6    28    1
     9     7     8    2
    10     7     9    1
    11     9    10   ar
    12     9    26   ar
    13    10    11   ar
    14    11    12    1
    15    11    24   ar
    16    12    13    1
    17    13    14   ar
    18    13    23   ar
    19    14    15   ar
    20    15    16   ar
    21    16    17    2
    22    16    18   ar
    23    18    19   ar
    24    18    23   ar
    25    19    20   ar
    26    20    21   ar
    27    21    22   ar
    28    22    23   ar
    29    24    25   ar
    30    25    26   ar
    31    26    27    1
    32    28    29    1
    33     1    30    1
    34     1    31    1
    35     1    32    1
    36     3    33    1
    37     4    34    1
    38     4    35    1
    39     5    36    1
    40     5    37    1
    41    10    38    1
    42    12    39    1
    43    12    40    1
    44    15    41    1
    45    19    42    1
    46    20    43    1
    47    21    44    1
    48    22    45    1
    49    24    46    1
    50    25    47    1
    51    28    48    1
    52    28    49    1
    53    29    50    1
    54    29    51    1
@<TRIPOS>MOLECULE
../data/bude_mols_rdkit_confs2/molecule_21.pdb
 51 54 0 0 0
SMALL
GASTEIGER

@<TRIPOS>ATOM
      1  C1        -5.4670    1.7250    1.0630 C.3     1  UNL1        0.0368
      2  O1        -5.7740    0.5920    0.3130 O.3     1  UNL1       -0.3797
      3  C2        -4.6380   -0.2080    0.1830 C.3     1  UNL1        0.0612
      4  C3        -4.2780   -0.3590   -1.2670 C.3     1  UNL1       -0.0107
      5  C4        -2.9750   -1.0760   -1.4390 C.3     1  UNL1        0.0173
      6  N1        -2.7400   -1.9510   -0.3260 N.am    1  UNL1       -0.2973
      7  C5        -1.3850   -2.2320    0.0500 C.2     1  UNL1        0.2494
      8  O2        -1.1560   -2.9850    1.0150 O.2     1  UNL1       -0.2699
      9  C6        -0.2710   -1.6260   -0.7130 C.ar    1  UNL1        0.0723
     10  C7         0.2580   -0.4100   -0.3440 C.ar    1  UNL1       -0.0433
     11  C8         1.3210    0.1460   -1.0960 C.ar    1  UNL1       -0.0406
     12  C9         1.8270    1.4570   -0.6430 C.3     1  UNL1        0.0171
     13  C10        2.7020    1.3900    0.5460 C.ar    1  UNL1        0.0736
     14  N2         2.1910    1.5400    1.7960 N.ar    1  UNL1       -0.1750
     15  N3         2.8570    1.4420    2.9050 N.ar    1  UNL1       -0.2425
     16  C11        4.1630    1.1720    2.8340 C.ar    1  UNL1        0.2725
     17  O3         4.8760    1.0610    3.8670 O.2     1  UNL1       -0.2658
     18  C12        4.7770    1.0030    1.5870 C.ar    1  UNL1        0.0496
     19  C13        6.1440    0.7390    1.5580 C.ar    1  UNL1       -0.0487
     20  C14        6.7710    0.5890    0.3370 C.ar    1  UNL1       -0.0610
     21  C15        6.0100    0.7060   -0.8190 C.ar    1  UNL1       -0.0611
     22  C16        4.6680    0.9650   -0.7730 C.ar    1  UNL1       -0.0521
     23  C17        4.0370    1.1140    0.4330 C.ar    1  UNL1        0.0106
     24  C18        1.7700   -0.5640   -2.1620 C.ar    1  UNL1       -0.0555
     25  C19        1.2240   -1.8010   -2.5270 C.ar    1  UNL1       -0.0254
     26  C20        0.1850   -2.3350   -1.7850 C.ar    1  UNL1        0.1355
     27  F1        -0.3640   -3.5470   -2.1260 F       1  UNL1       -0.2047
     28  C21       -3.8290   -2.5450    0.3890 C.3     1  UNL1        0.0173
     29  C22       -4.8730   -1.5540    0.8120 C.3     1  UNL1       -0.0107
     30 H          -6.3402    2.3356    1.1604 H       1  UNL1        0.0524
     31 H          -4.6964    2.2806    0.5707 H       1  UNL1        0.0524
     32 H          -5.1286    1.4291    2.0340 H       1  UNL1        0.0524
     33 H          -3.8223    0.2633    0.6903 H       1  UNL1        0.0597
     34 H          -4.2008    0.6125   -1.7087 H       1  UNL1        0.0305
     35 H          -5.0430   -0.9355   -1.7437 H       1  UNL1        0.0305
     36 H          -2.1825   -0.3595   -1.4988 H       1  UNL1        0.0465
     37 H          -3.0116   -1.6560   -2.3374 H       1  UNL1        0.0465
     38 H          -0.1176    0.0930    0.4751 H       1  UNL1        0.0629
     39 H           0.9878    2.0776   -0.4076 H       1  UNL1        0.0377
     40 H           2.4218    1.8498   -1.4410 H       1  UNL1        0.0377
     41 H           2.4120    1.5633    3.7748 H       1  UNL1        0.1921
     42 H           6.6803    0.6567    2.4358 H       1  UNL1        0.0625
     43 H           7.7831    0.3942    0.2845 H       1  UNL1        0.0618
     44 H           6.4692    0.5946   -1.7365 H       1  UNL1        0.0618
     45 H           4.1295    1.0484   -1.6494 H       1  UNL1        0.0624
     46 H           2.5435   -0.1775   -2.7253 H       1  UNL1        0.0621
     47 H           1.5942   -2.3111   -3.3442 H       1  UNL1        0.0646
     48 H          -3.4403   -3.0229    1.2639 H       1  UNL1        0.0465
     49 H          -4.3017   -3.2394   -0.2738 H       1  UNL1        0.0465
     50 H          -5.8357   -1.9141    0.5146 H       1  UNL1        0.0305
     51 H          -4.8212   -1.4429    1.8750 H       1  UNL1        0.0305
@<TRIPOS>BOND
     1     1     2    1
     2     2     3    1
     3     3     4    1
     4     3    29    1
     5     4     5    1
     6     5     6    1
     7     6     7   am
     8     6    28    1
     9     7     8    2
    10     7     9    1
    11     9    10   ar
    12     9    26   ar
    13    10    11   ar
    14    11    12    1
    15    11    24   ar
    16    12    13    1
    17    13    14   ar
    18    13    23   ar
    19    14    15   ar
    20    15    16   ar
    21    16    17    2
    22    16    18   ar
    23    18    19   ar
    24    18    23   ar
    25    19    20   ar
    26    20    21   ar
    27    21    22   ar
    28    22    23   ar
    29    24    25   ar
    30    25    26   ar
    31    26    27    1
    32    28    29    1
    33     1    30    1
    34     1    31    1
    35     1    32    1
    36     3    33    1
    37     4    34    1
    38     4    35    1
    39     5    36    1
    40     5    37    1
    41    10    38    1
    42    12    39    1
    43    12    40    1
    44    15    41    1
    45    19    42    1
    46    20    43    1
    47    21    44    1
    48    22    45    1
    49    24    46    1
    50    25    47    1
    51    28    48    1
    52    28    49    1
    53    29    50    1
    54    29    51    1
@<TRIPOS>MOLECULE
../data/bude_mols_rdkit_confs2/molecule_21.pdb
 51 54 0 0 0
SMALL
GASTEIGER

@<TRIPOS>ATOM
      1  C1        -7.3940    0.8020    0.0110 C.3     1  UNL1        0.0368
      2  O1        -6.6110   -0.3430   -0.0920 O.3     1  UNL1       -0.3797
      3  C2        -5.3130   -0.0100    0.2640 C.3     1  UNL1        0.0612
      4  C3        -4.3140   -0.2590   -0.8510 C.3     1  UNL1       -0.0107
      5  C4        -2.9880    0.3190   -0.4020 C.3     1  UNL1        0.0173
      6  N1        -2.6050   -0.1710    0.9000 N.am    1  UNL1       -0.2973
      7  C5        -1.3280   -0.7230    1.1730 C.2     1  UNL1        0.2494
      8  O2        -1.0410   -1.1410    2.3150 O.2     1  UNL1       -0.2699
      9  C6        -0.3320   -0.8070    0.1230 C.ar    1  UNL1        0.0723
     10  C7         0.5560    0.2130   -0.1100 C.ar    1  UNL1       -0.0433
     11  C8         1.5210    0.1600   -1.1160 C.ar    1  UNL1       -0.0406
     12  C9         2.4400    1.3230   -1.3210 C.3     1  UNL1        0.0171
     13  C10        3.4480    1.3040   -0.2350 C.ar    1  UNL1        0.0736
     14  N2         3.2090    2.0290    0.9140 N.ar    1  UNL1       -0.1750
     15  N3         4.0290    2.0100    1.9400 N.ar    1  UNL1       -0.2425
     16  C11        5.1570    1.2950    1.9620 C.ar    1  UNL1        0.2725
     17  O3         5.9520    1.2800    2.9640 O.2     1  UNL1       -0.2658
     18  C12        5.4690    0.5370    0.8360 C.ar    1  UNL1        0.0496
     19  C13        6.6440   -0.1850    0.8550 C.ar    1  UNL1       -0.0487
     20  C14        6.9430   -0.9180   -0.2960 C.ar    1  UNL1       -0.0610
     21  C15        6.0900   -0.8990   -1.3710 C.ar    1  UNL1       -0.0611
     22  C16        4.9250   -0.1790   -1.3790 C.ar    1  UNL1       -0.0521
     23  C17        4.5950    0.5610   -0.2490 C.ar    1  UNL1        0.0106
     24  C18        1.5440   -0.9720   -1.8740 C.ar    1  UNL1       -0.0555
     25  C19        0.6560   -2.0340   -1.6680 C.ar    1  UNL1       -0.0254
     26  C20       -0.2720   -1.9290   -0.6650 C.ar    1  UNL1        0.1355
     27  F1        -1.1470   -2.9690   -0.4570 F       1  UNL1       -0.2047
     28  C21       -3.5740   -0.0890    1.9740 C.3     1  UNL1        0.0173
     29  C22       -4.8260   -0.8100    1.4640 C.3     1  UNL1       -0.0107
     30 H          -8.4029    0.5697   -0.2594 H       1  UNL1        0.0524
     31 H          -7.0128    1.5551   -0.6466 H       1  UNL1        0.0524
     32 H          -7.3686    1.1620    1.0183 H       1  UNL1        0.0524
     33 H          -5.3602    1.0343    0.4922 H       1  UNL1        0.0597
     34 H          -4.6390    0.2237   -1.7489 H       1  UNL1        0.0305
     35 H          -4.2231   -1.3059   -1.0526 H       1  UNL1        0.0305
     36 H          -3.0707    1.3850   -0.3606 H       1  UNL1        0.0465
     37 H          -2.2387    0.0192   -1.1046 H       1  UNL1        0.0465
     38 H           0.5078    1.0553    0.4844 H       1  UNL1        0.0629
     39 H           1.8840    2.2365   -1.2850 H       1  UNL1        0.0377
     40 H           2.9191    1.2557   -2.2754 H       1  UNL1        0.0377
     41 H           3.8010    2.5492    2.7315 H       1  UNL1        0.1921
     42 H           7.2692   -0.1838    1.6761 H       1  UNL1        0.0625
     43 H           7.8097   -1.4766   -0.3382 H       1  UNL1        0.0618
     44 H           6.3367   -1.4501   -2.2080 H       1  UNL1        0.0618
     45 H           4.3062   -0.1855   -2.2049 H       1  UNL1        0.0624
     46 H           2.2432   -1.0493   -2.6291 H       1  UNL1        0.0621
     47 H           0.6991   -2.8788   -2.2592 H       1  UNL1        0.0646
     48 H          -3.7977    0.9334    2.1965 H       1  UNL1        0.0465
     49 H          -3.2028   -0.5339    2.8736 H       1  UNL1        0.0465
     50 H          -4.5851   -1.8104    1.1706 H       1  UNL1        0.0305
     51 H          -5.5775   -0.8736    2.2230 H       1  UNL1        0.0305
@<TRIPOS>BOND
     1     1     2    1
     2     2     3    1
     3     3     4    1
     4     3    29    1
     5     4     5    1
     6     5     6    1
     7     6     7   am
     8     6    28    1
     9     7     8    2
    10     7     9    1
    11     9    10   ar
    12     9    26   ar
    13    10    11   ar
    14    11    12    1
    15    11    24   ar
    16    12    13    1
    17    13    14   ar
    18    13    23   ar
    19    14    15   ar
    20    15    16   ar
    21    16    17    2
    22    16    18   ar
    23    18    19   ar
    24    18    23   ar
    25    19    20   ar
    26    20    21   ar
    27    21    22   ar
    28    22    23   ar
    29    24    25   ar
    30    25    26   ar
    31    26    27    1
    32    28    29    1
    33     1    30    1
    34     1    31    1
    35     1    32    1
    36     3    33    1
    37     4    34    1
    38     4    35    1
    39     5    36    1
    40     5    37    1
    41    10    38    1
    42    12    39    1
    43    12    40    1
    44    15    41    1
    45    19    42    1
    46    20    43    1
    47    21    44    1
    48    22    45    1
    49    24    46    1
    50    25    47    1
    51    28    48    1
    52    28    49    1
    53    29    50    1
    54    29    51    1
@<TRIPOS>MOLECULE
../data/bude_mols_rdkit_confs2/molecule_21.pdb
 51 54 0 0 0
SMALL
GASTEIGER

@<TRIPOS>ATOM
      1  C1         6.9360    1.2440    0.4990 C.3     1  UNL1        0.0368
      2  O1         6.4220    0.2260   -0.2920 O.3     1  UNL1       -0.3797
      3  C2         5.1090   -0.0890    0.0190 C.3     1  UNL1        0.0612
      4  C3         4.1490    0.1390   -1.1050 C.3     1  UNL1       -0.0107
      5  C4         2.9180   -0.7520   -0.9070 C.3     1  UNL1        0.0173
      6  N1         2.6780   -0.8620    0.5040 N.am    1  UNL1       -0.2973
      7  C5         1.5170   -0.2920    1.1090 C.2     1  UNL1        0.2494
      8  O2         1.3050   -0.3850    2.3380 O.2     1  UNL1       -0.2699
      9  C6         0.5320    0.4270    0.2840 C.ar    1  UNL1        0.0723
     10  C7        -0.5250   -0.2350   -0.2870 C.ar    1  UNL1       -0.0433
     11  C8        -1.4800    0.4220   -1.0770 C.ar    1  UNL1       -0.0406
     12  C9        -2.5880   -0.3490   -1.6940 C.3     1  UNL1        0.0171
     13  C10       -3.5820   -0.8630   -0.7630 C.ar    1  UNL1        0.0736
     14  N2        -3.4340   -2.1530   -0.3360 N.ar    1  UNL1       -0.1750
     15  N3        -4.2570   -2.6980    0.5420 N.ar    1  UNL1       -0.2425
     16  C11       -5.2880   -2.0330    1.0740 C.ar    1  UNL1        0.2725
     17  O3        -6.0670   -2.5540    1.9080 O.2     1  UNL1       -0.2658
     18  C12       -5.5000   -0.7330    0.6920 C.ar    1  UNL1        0.0496
     19  C13       -6.5530   -0.0020    1.1980 C.ar    1  UNL1       -0.0487
     20  C14       -6.7560    1.2830    0.7970 C.ar    1  UNL1       -0.0610
     21  C15       -5.8970    1.8340   -0.1150 C.ar    1  UNL1       -0.0611
     22  C16       -4.8350    1.1370   -0.6410 C.ar    1  UNL1       -0.0521
     23  C17       -4.6210   -0.1500   -0.2460 C.ar    1  UNL1        0.0106
     24  C18       -1.3610    1.7550   -1.2870 C.ar    1  UNL1       -0.0555
     25  C19       -0.2890    2.4370   -0.7100 C.ar    1  UNL1       -0.0254
     26  C20        0.6390    1.7830    0.0610 C.ar    1  UNL1        0.1355
     27  F1         1.6950    2.4340    0.6340 F       1  UNL1       -0.2047
     28  C21        3.6600   -1.5770    1.2970 C.3     1  UNL1        0.0173
     29  C22        4.9780   -1.5060    0.5500 C.3     1  UNL1       -0.0107
     30 H           7.9480    1.4415    0.2131 H       1  UNL1        0.0524
     31 H           6.9072    0.9465    1.5264 H       1  UNL1        0.0524
     32 H           6.3490    2.1289    0.3674 H       1  UNL1        0.0524
     33 H           4.8372    0.5960    0.7947 H       1  UNL1        0.0597
     34 H           4.6213   -0.1048   -2.0337 H       1  UNL1        0.0305
     35 H           3.8500    1.1663   -1.1187 H       1  UNL1        0.0305
     36 H           3.0998   -1.7214   -1.3219 H       1  UNL1        0.0465
     37 H           2.0673   -0.3286   -1.3988 H       1  UNL1        0.0465
     38 H          -0.6209   -1.2505   -0.1301 H       1  UNL1        0.0629
     39 H          -2.1619   -1.1807   -2.2151 H       1  UNL1        0.0377
     40 H          -3.1063    0.3364   -2.3316 H       1  UNL1        0.0377
     41 H          -4.1051   -3.6314    0.8157 H       1  UNL1        0.1921
     42 H          -7.1918   -0.4315    1.8854 H       1  UNL1        0.0625
     43 H          -7.5441    1.8322    1.1742 H       1  UNL1        0.0618
     44 H          -6.0521    2.8080   -0.4189 H       1  UNL1        0.0618
     45 H          -4.2067    1.5833   -1.3274 H       1  UNL1        0.0624
     46 H          -2.0524    2.2583   -1.8647 H       1  UNL1        0.0621
     47 H          -0.1922    3.4525   -0.8660 H       1  UNL1        0.0646
     48 H           3.3614   -2.5974    1.4173 H       1  UNL1        0.0465
     49 H           3.7514   -1.1422    2.2704 H       1  UNL1        0.0465
     50 H           5.7887   -1.7270    1.2125 H       1  UNL1        0.0305
     51 H           5.0043   -2.2179   -0.2484 H       1  UNL1        0.0305
@<TRIPOS>BOND
     1     1     2    1
     2     2     3    1
     3     3     4    1
     4     3    29    1
     5     4     5    1
     6     5     6    1
     7     6     7   am
     8     6    28    1
     9     7     8    2
    10     7     9    1
    11     9    10   ar
    12     9    26   ar
    13    10    11   ar
    14    11    12    1
    15    11    24   ar
    16    12    13    1
    17    13    14   ar
    18    13    23   ar
    19    14    15   ar
    20    15    16   ar
    21    16    17    2
    22    16    18   ar
    23    18    19   ar
    24    18    23   ar
    25    19    20   ar
    26    20    21   ar
    27    21    22   ar
    28    22    23   ar
    29    24    25   ar
    30    25    26   ar
    31    26    27    1
    32    28    29    1
    33     1    30    1
    34     1    31    1
    35     1    32    1
    36     3    33    1
    37     4    34    1
    38     4    35    1
    39     5    36    1
    40     5    37    1
    41    10    38    1
    42    12    39    1
    43    12    40    1
    44    15    41    1
    45    19    42    1
    46    20    43    1
    47    21    44    1
    48    22    45    1
    49    24    46    1
    50    25    47    1
    51    28    48    1
    52    28    49    1
    53    29    50    1
    54    29    51    1
@<TRIPOS>MOLECULE
../data/bude_mols_rdkit_confs2/molecule_21.pdb
 51 54 0 0 0
SMALL
GASTEIGER

@<TRIPOS>ATOM
      1  C1         7.0470    0.6500    0.0210 C.3     1  UNL1        0.0368
      2  O1         6.2600    0.2670   -1.0590 O.3     1  UNL1       -0.3797
      3  C2         4.9880   -0.1340   -0.6800 C.3     1  UNL1        0.0612
      4  C3         4.7760   -1.5970   -0.9620 C.3     1  UNL1       -0.0107
      5  C4         3.5290   -2.0850   -0.2130 C.3     1  UNL1        0.0173
      6  N1         2.5490   -1.0240   -0.3380 N.am    1  UNL1       -0.2973
      7  C5         1.5070   -0.8310    0.5940 C.2     1  UNL1        0.2494
      8  O2         1.3690   -1.5750    1.5940 O.2     1  UNL1       -0.2699
      9  C6         0.5620    0.2520    0.4060 C.ar    1  UNL1        0.0723
     10  C7        -0.6180    0.0690   -0.3260 C.ar    1  UNL1       -0.0433
     11  C8        -1.5380    1.0740   -0.5230 C.ar    1  UNL1       -0.0406
     12  C9        -2.8030    0.8960   -1.2860 C.3     1  UNL1        0.0171
     13  C10       -4.0120    0.8510   -0.4520 C.ar    1  UNL1        0.0736
     14  N2        -4.7370    2.0040   -0.2870 N.ar    1  UNL1       -0.1750
     15  N3        -5.7980    2.0910    0.4560 N.ar    1  UNL1       -0.2425
     16  C11       -6.2670    1.0270    1.1320 C.ar    1  UNL1        0.2725
     17  O3        -7.3000    1.1820    1.8350 O.2     1  UNL1       -0.2658
     18  C12       -5.6180   -0.1920    1.0430 C.ar    1  UNL1        0.0496
     19  C13       -6.1010   -1.2860    1.7240 C.ar    1  UNL1       -0.0487
     20  C14       -5.4540   -2.4970    1.6160 C.ar    1  UNL1       -0.0610
     21  C15       -4.3340   -2.5340    0.8110 C.ar    1  UNL1       -0.0611
     22  C16       -3.8390   -1.4420    0.1230 C.ar    1  UNL1       -0.0521
     23  C17       -4.4890   -0.2370    0.2370 C.ar    1  UNL1        0.0106
     24  C18       -1.2570    2.3260    0.0430 C.ar    1  UNL1       -0.0555
     25  C19       -0.1110    2.5410    0.7650 C.ar    1  UNL1       -0.0254
     26  C20        0.7890    1.5000    0.9400 C.ar    1  UNL1        0.1355
     27  F1         1.9200    1.7370    1.6610 F       1  UNL1       -0.2047
     28  C21        2.6880   -0.1470   -1.4910 C.3     1  UNL1        0.0173
     29  C22        3.9040    0.7470   -1.2210 C.3     1  UNL1       -0.0107
     30 H           8.0130    0.9481   -0.3296 H       1  UNL1        0.0524
     31 H           7.1511   -0.1735    0.6963 H       1  UNL1        0.0524
     32 H           6.5827    1.4702    0.5276 H       1  UNL1        0.0524
     33 H           4.9197   -0.0117    0.3808 H       1  UNL1        0.0597
     34 H           5.6299   -2.1514   -0.6328 H       1  UNL1        0.0305
     35 H           4.6411   -1.7424   -2.0135 H       1  UNL1        0.0305
     36 H           3.7585   -2.2600    0.8173 H       1  UNL1        0.0465
     37 H           3.1639   -3.0062   -0.6168 H       1  UNL1        0.0465
     38 H          -0.8059   -0.8595   -0.7354 H       1  UNL1        0.0629
     39 H          -2.7384   -0.0219   -1.8321 H       1  UNL1        0.0377
     40 H          -2.9007    1.7520   -1.9206 H       1  UNL1        0.0377
     41 H          -6.2686    2.9529    0.5260 H       1  UNL1        0.1921
     42 H          -6.9441   -1.1994    2.3129 H       1  UNL1        0.0625
     43 H          -5.7907   -3.3363    2.1132 H       1  UNL1        0.0618
     44 H          -3.8350   -3.4324    0.7167 H       1  UNL1        0.0618
     45 H          -2.9961   -1.5303   -0.4659 H       1  UNL1        0.0624
     46 H          -1.9260    3.1011   -0.0864 H       1  UNL1        0.0621
     47 H           0.0801    3.4688    1.1744 H       1  UNL1        0.0646
     48 H           1.8088    0.4516   -1.6070 H       1  UNL1        0.0465
     49 H           2.8178   -0.7118   -2.3905 H       1  UNL1        0.0465
     50 H           4.2273    1.2108   -2.1294 H       1  UNL1        0.0305
     51 H           3.6597    1.5213   -0.5241 H       1  UNL1        0.0305
@<TRIPOS>BOND
     1     1     2    1
     2     2     3    1
     3     3     4    1
     4     3    29    1
     5     4     5    1
     6     5     6    1
     7     6     7   am
     8     6    28    1
     9     7     8    2
    10     7     9    1
    11     9    10   ar
    12     9    26   ar
    13    10    11   ar
    14    11    12    1
    15    11    24   ar
    16    12    13    1
    17    13    14   ar
    18    13    23   ar
    19    14    15   ar
    20    15    16   ar
    21    16    17    2
    22    16    18   ar
    23    18    19   ar
    24    18    23   ar
    25    19    20   ar
    26    20    21   ar
    27    21    22   ar
    28    22    23   ar
    29    24    25   ar
    30    25    26   ar
    31    26    27    1
    32    28    29    1
    33     1    30    1
    34     1    31    1
    35     1    32    1
    36     3    33    1
    37     4    34    1
    38     4    35    1
    39     5    36    1
    40     5    37    1
    41    10    38    1
    42    12    39    1
    43    12    40    1
    44    15    41    1
    45    19    42    1
    46    20    43    1
    47    21    44    1
    48    22    45    1
    49    24    46    1
    50    25    47    1
    51    28    48    1
    52    28    49    1
    53    29    50    1
    54    29    51    1
@<TRIPOS>MOLECULE
../data/bude_mols_rdkit_confs2/molecule_21.pdb
 51 54 0 0 0
SMALL
GASTEIGER

@<TRIPOS>ATOM
      1  C1         7.6280   -0.4220    1.0680 C.3     1  UNL1        0.0368
      2  O1         6.3370   -0.8360    0.7900 O.3     1  UNL1       -0.3797
      3  C2         5.6170    0.0590    0.0280 C.3     1  UNL1        0.0612
      4  C3         5.2680   -0.4940   -1.3250 C.3     1  UNL1       -0.0107
      5  C4         4.1050    0.2930   -1.9310 C.3     1  UNL1        0.0173
      6  N1         2.9710   -0.0050   -1.0980 N.am    1  UNL1       -0.2973
      7  C5         1.7820   -0.4920   -1.7060 C.2     1  UNL1        0.2494
      8  O2         1.7200   -0.6360   -2.9610 O.2     1  UNL1       -0.2699
      9  C6         0.6160   -0.8360   -0.8900 C.ar    1  UNL1        0.0723
     10  C7        -0.3920    0.0120   -0.5380 C.ar    1  UNL1       -0.0433
     11  C8        -1.4630   -0.3780    0.2430 C.ar    1  UNL1       -0.0406
     12  C9        -2.5190    0.5970    0.5890 C.3     1  UNL1        0.0171
     13  C10       -3.7700    0.4190   -0.1860 C.ar    1  UNL1        0.0736
     14  N2        -3.8010   -0.1400   -1.4050 N.ar    1  UNL1       -0.1750
     15  N3        -4.9340   -0.3090   -2.0500 N.ar    1  UNL1       -0.2425
     16  C11       -6.1350    0.0590   -1.5450 C.ar    1  UNL1        0.2725
     17  O3        -7.2170   -0.1010   -2.1530 O.2     1  UNL1       -0.2658
     18  C12       -6.1700    0.6340   -0.3080 C.ar    1  UNL1        0.0496
     19  C13       -7.3670    1.0250    0.2400 C.ar    1  UNL1       -0.0487
     20  C14       -7.4340    1.6120    1.4870 C.ar    1  UNL1       -0.0610
     21  C15       -6.2660    1.7950    2.1670 C.ar    1  UNL1       -0.0611
     22  C16       -5.0540    1.3990    1.6130 C.ar    1  UNL1       -0.0521
     23  C17       -4.9610    0.8130    0.3760 C.ar    1  UNL1        0.0106
     24  C18       -1.5070   -1.6740    0.6760 C.ar    1  UNL1       -0.0555
     25  C19       -0.5020   -2.5820    0.3420 C.ar    1  UNL1       -0.0254
     26  C20        0.5440   -2.1580   -0.4320 C.ar    1  UNL1        0.1355
     27  F1         1.5550   -3.0060   -0.7850 F       1  UNL1       -0.2047
     28  C21        3.0980    0.2260    0.3120 C.3     1  UNL1        0.0173
     29  C22        4.4540    0.5240    0.8190 C.3     1  UNL1       -0.0107
     30 H           8.1211   -1.1647    1.6598 H       1  UNL1        0.0524
     31 H           7.5980    0.5017    1.6073 H       1  UNL1        0.0524
     32 H           8.1630   -0.2829    0.1519 H       1  UNL1        0.0524
     33 H           6.2188    0.9142   -0.1986 H       1  UNL1        0.0597
     34 H           4.9861   -1.5214   -1.2253 H       1  UNL1        0.0305
     35 H           6.1195   -0.4105   -1.9675 H       1  UNL1        0.0305
     36 H           3.9237   -0.0214   -2.9376 H       1  UNL1        0.0465
     37 H           4.3091    1.3427   -1.9668 H       1  UNL1        0.0465
     38 H          -0.3533    0.9885   -0.8696 H       1  UNL1        0.0629
     39 H          -2.1437    1.5817    0.4036 H       1  UNL1        0.0377
     40 H          -2.7638    0.4412    1.6189 H       1  UNL1        0.0377
     41 H          -4.9079   -0.7229   -2.9429 H       1  UNL1        0.1921
     42 H          -8.2376    0.8762   -0.2938 H       1  UNL1        0.0625
     43 H          -8.3377    1.9028    1.8916 H       1  UNL1        0.0618
     44 H          -6.2821    2.2317    3.1019 H       1  UNL1        0.0618
     45 H          -4.1889    1.5521    2.1544 H       1  UNL1        0.0624
     46 H          -2.2981   -1.9863    1.2606 H       1  UNL1        0.0621
     47 H          -0.5466   -3.5583    0.6734 H       1  UNL1        0.0646
     48 H           2.7493   -0.6509    0.8164 H       1  UNL1        0.0465
     49 H           2.5269    1.1104    0.5034 H       1  UNL1        0.0465
     50 H           4.5337    1.5876    0.9044 H       1  UNL1        0.0305
     51 H           4.5204   -0.0256    1.7346 H       1  UNL1        0.0305
@<TRIPOS>BOND
     1     1     2    1
     2     2     3    1
     3     3     4    1
     4     3    29    1
     5     4     5    1
     6     5     6    1
     7     6     7   am
     8     6    28    1
     9     7     8    2
    10     7     9    1
    11     9    10   ar
    12     9    26   ar
    13    10    11   ar
    14    11    12    1
    15    11    24   ar
    16    12    13    1
    17    13    14   ar
    18    13    23   ar
    19    14    15   ar
    20    15    16   ar
    21    16    17    2
    22    16    18   ar
    23    18    19   ar
    24    18    23   ar
    25    19    20   ar
    26    20    21   ar
    27    21    22   ar
    28    22    23   ar
    29    24    25   ar
    30    25    26   ar
    31    26    27    1
    32    28    29    1
    33     1    30    1
    34     1    31    1
    35     1    32    1
    36     3    33    1
    37     4    34    1
    38     4    35    1
    39     5    36    1
    40     5    37    1
    41    10    38    1
    42    12    39    1
    43    12    40    1
    44    15    41    1
    45    19    42    1
    46    20    43    1
    47    21    44    1
    48    22    45    1
    49    24    46    1
    50    25    47    1
    51    28    48    1
    52    28    49    1
    53    29    50    1
    54    29    51    1
@<TRIPOS>MOLECULE
../data/bude_mols_rdkit_confs2/molecule_21.pdb
 51 54 0 0 0
SMALL
GASTEIGER

@<TRIPOS>ATOM
      1  C1        -7.7090   -0.0330    0.7040 C.3     1  UNL1        0.0368
      2  O1        -6.4850    0.4340    1.0990 O.3     1  UNL1       -0.3797
      3  C2        -5.4560    0.2350    0.1810 C.3     1  UNL1        0.0612
      4  C3        -4.8750    1.4940   -0.3420 C.3     1  UNL1       -0.0107
      5  C4        -3.9050    1.1200   -1.4800 C.3     1  UNL1        0.0173
      6  N1        -2.8140    0.3730   -0.8280 N.am    1  UNL1       -0.2973
      7  C5        -1.6160    0.1510   -1.5200 C.2     1  UNL1        0.2494
      8  O2        -1.4160    0.5720   -2.6890 O.2     1  UNL1       -0.2699
      9  C6        -0.5520   -0.5940   -0.8750 C.ar    1  UNL1        0.0723
     10  C7         0.4450    0.0600   -0.1570 C.ar    1  UNL1       -0.0433
     11  C8         1.4270   -0.6930    0.4350 C.ar    1  UNL1       -0.0406
     12  C9         2.5430   -0.0610    1.1830 C.3     1  UNL1        0.0171
     13  C10        3.8020   -0.2820    0.4280 C.ar    1  UNL1        0.0736
     14  N2         3.8760   -1.3990   -0.3540 N.ar    1  UNL1       -0.1750
     15  N3         4.9430   -1.6980   -1.0710 N.ar    1  UNL1       -0.2425
     16  C11        6.0090   -0.9000   -1.0550 C.ar    1  UNL1        0.2725
     17  O3         6.9920   -1.2370   -1.7560 O.2     1  UNL1       -0.2658
     18  C12        6.0250    0.2510   -0.2930 C.ar    1  UNL1        0.0496
     19  C13        7.1410    1.0640   -0.2760 C.ar    1  UNL1       -0.0487
     20  C14        7.1240    2.1960    0.5030 C.ar    1  UNL1       -0.0610
     21  C15        5.9990    2.4760    1.2350 C.ar    1  UNL1       -0.0611
     22  C16        4.8580    1.6780    1.2390 C.ar    1  UNL1       -0.0521
     23  C17        4.8740    0.5330    0.4520 C.ar    1  UNL1        0.0106
     24  C18        1.4130   -2.0660    0.3120 C.ar    1  UNL1       -0.0555
     25  C19        0.4320   -2.7280   -0.3960 C.ar    1  UNL1       -0.0254
     26  C20       -0.5590   -1.9840   -0.9960 C.ar    1  UNL1        0.1355
     27  F1        -1.5590   -2.5430   -1.7120 F       1  UNL1       -0.2047
     28  C21       -3.0480   -0.1140    0.5250 C.3     1  UNL1        0.0173
     29  C22       -4.4230   -0.7170    0.6510 C.3     1  UNL1       -0.0107
     30 H          -8.4300    0.1643    1.4695 H       1  UNL1        0.0524
     31 H          -7.6501   -1.0876    0.5328 H       1  UNL1        0.0524
     32 H          -8.0040    0.4591   -0.1992 H       1  UNL1        0.0524
     33 H          -5.9275   -0.2350   -0.6566 H       1  UNL1        0.0597
     34 H          -4.3459    2.0030    0.4364 H       1  UNL1        0.0305
     35 H          -5.6456    2.1432   -0.7022 H       1  UNL1        0.0305
     36 H          -3.5255    2.0009   -1.9542 H       1  UNL1        0.0465
     37 H          -4.3858    0.5424   -2.2417 H       1  UNL1        0.0465
     38 H           0.4455    1.0885   -0.0719 H       1  UNL1        0.0629
     39 H           2.6224   -0.5031    2.1542 H       1  UNL1        0.0377
     40 H           2.3619    0.9877    1.2942 H       1  UNL1        0.0377
     41 H           4.9509   -2.5150   -1.6203 H       1  UNL1        0.1921
     42 H           7.9730    0.8258   -0.8382 H       1  UNL1        0.0625
     43 H           7.9426    2.8235    0.5364 H       1  UNL1        0.0618
     44 H           5.9978    3.3282    1.8171 H       1  UNL1        0.0618
     45 H           4.0319    1.9275    1.8050 H       1  UNL1        0.0624
     46 H           2.1603   -2.6158    0.7640 H       1  UNL1        0.0621
     47 H           0.4405   -3.7570   -0.4742 H       1  UNL1        0.0646
     48 H          -2.9596    0.7024    1.2110 H       1  UNL1        0.0465
     49 H          -2.3228   -0.8691    0.7459 H       1  UNL1        0.0465
     50 H          -4.4715   -1.6080    0.0605 H       1  UNL1        0.0305
     51 H          -4.6066   -0.9441    1.6804 H       1  UNL1        0.0305
@<TRIPOS>BOND
     1     1     2    1
     2     2     3    1
     3     3     4    1
     4     3    29    1
     5     4     5    1
     6     5     6    1
     7     6     7   am
     8     6    28    1
     9     7     8    2
    10     7     9    1
    11     9    10   ar
    12     9    26   ar
    13    10    11   ar
    14    11    12    1
    15    11    24   ar
    16    12    13    1
    17    13    14   ar
    18    13    23   ar
    19    14    15   ar
    20    15    16   ar
    21    16    17    2
    22    16    18   ar
    23    18    19   ar
    24    18    23   ar
    25    19    20   ar
    26    20    21   ar
    27    21    22   ar
    28    22    23   ar
    29    24    25   ar
    30    25    26   ar
    31    26    27    1
    32    28    29    1
    33     1    30    1
    34     1    31    1
    35     1    32    1
    36     3    33    1
    37     4    34    1
    38     4    35    1
    39     5    36    1
    40     5    37    1
    41    10    38    1
    42    12    39    1
    43    12    40    1
    44    15    41    1
    45    19    42    1
    46    20    43    1
    47    21    44    1
    48    22    45    1
    49    24    46    1
    50    25    47    1
    51    28    48    1
    52    28    49    1
    53    29    50    1
    54    29    51    1
