@<TRIPOS>MOLECULE
../data/bude_mols_rdkit_confs2/molecule_7.pdb
 53 56 0 0 0
SMALL
GASTEIGER

@<TRIPOS>ATOM
      1  O1        -2.8230    0.5670   -0.0590 O.2     1  UNL1       -0.2754
      2  C1        -2.7790   -0.1370   -1.0990 C.2     1  UNL1        0.2193
      3  C2        -3.9810   -0.2560   -1.9260 C.3     1  UNL1        0.0685
      4  C3        -5.0800    0.5160   -1.3520 C.ar    1  UNL1        0.0780
      5  N1        -5.4450    1.6970   -1.8790 N.ar    1  UNL1       -0.1748
      6  N2        -6.4420    2.4220   -1.3750 N.ar    1  UNL1       -0.2425
      7  C4        -7.1540    2.0260   -0.3040 C.ar    1  UNL1        0.2725
      8  O2        -8.0900    2.7590    0.1290 O.2     1  UNL1       -0.2658
      9  C5        -6.8330    0.8250    0.2860 C.ar    1  UNL1        0.0496
     10  C6        -7.5520    0.4040    1.3830 C.ar    1  UNL1       -0.0487
     11  C7        -7.2040   -0.8040    1.9500 C.ar    1  UNL1       -0.0610
     12  C8        -6.1650   -1.5780    1.4380 C.ar    1  UNL1       -0.0611
     13  C9        -5.4750   -1.1120    0.3370 C.ar    1  UNL1       -0.0521
     14  C10       -5.7910    0.0820   -0.2520 C.ar    1  UNL1        0.0108
     15  N3        -1.5420   -0.7720   -1.3930 N.am    1  UNL1       -0.3064
     16  C11       -0.4150   -0.5960   -0.5210 C.3     1  UNL1        0.0883
     17  C12        0.7320   -1.3530   -1.0510 C.2     1  UNL1        0.2328
     18  O3         0.6090   -2.0080   -2.1060 O.2     1  UNL1       -0.2739
     19  N4         1.9950   -1.3430   -0.3620 N.am    1  UNL1       -0.2972
     20  C13        2.1790   -0.5990    0.8610 C.3     1  UNL1        0.0305
     21  C14        3.5890   -0.8570    1.3800 C.3     1  UNL1        0.0280
     22  N5         4.5790   -0.6080    0.3650 N.pl3   1  UNL1       -0.3269
     23  C15        5.7640    0.1080    0.5920 C.ar    1  UNL1        0.0299
     24  C16        6.1190    0.5960    1.8120 C.ar    1  UNL1       -0.0379
     25  C17        7.2980    1.3080    2.0160 C.ar    1  UNL1       -0.0247
     26  C18        8.1350    1.5300    0.9550 C.ar    1  UNL1        0.1235
     27  F1         9.2730    2.2280    1.1960 F       1  UNL1       -0.2055
     28  C19        7.8100    1.0530   -0.2890 C.ar    1  UNL1       -0.0247
     29  C20        6.6390    0.3500   -0.4710 C.ar    1  UNL1       -0.0379
     30  C21        4.2990   -1.1540   -0.9680 C.3     1  UNL1        0.0280
     31  C22        3.1140   -2.0900   -0.8950 C.3     1  UNL1        0.0305
     32 H          -4.2673   -1.2854   -1.9838 H       1  UNL1        0.0423
     33 H          -3.7661    0.1245   -2.9027 H       1  UNL1        0.0423
     34 H          -6.6666    3.2801   -1.8021 H       1  UNL1        0.1921
     35 H          -8.3233    0.9722    1.7667 H       1  UNL1        0.0625
     36 H          -7.7258   -1.1428    2.7734 H       1  UNL1        0.0618
     37 H          -5.9165   -2.4805    1.8725 H       1  UNL1        0.0618
     38 H          -4.7033   -1.6769   -0.0507 H       1  UNL1        0.0624
     39 H          -1.4576   -1.3341   -2.1968 H       1  UNL1        0.1492
     40 H          -0.6597   -0.9554    0.4567 H       1  UNL1        0.0558
     41 H          -0.1641    0.4426   -0.4639 H       1  UNL1        0.0558
     42 H           1.4629   -0.9190    1.5888 H       1  UNL1        0.0480
     43 H           2.0429    0.4462    0.6769 H       1  UNL1        0.0480
     44 H           3.6624   -1.8771    1.6944 H       1  UNL1        0.0479
     45 H           3.7724   -0.1920    2.1979 H       1  UNL1        0.0479
     46 H           5.4916    0.4324    2.6149 H       1  UNL1        0.0637
     47 H           7.5380    1.6638    2.9545 H       1  UNL1        0.0647
     48 H           8.4416    1.2204   -1.0878 H       1  UNL1        0.0647
     49 H           6.4032   -0.0050   -1.4109 H       1  UNL1        0.0637
     50 H           5.1552   -1.6906   -1.3199 H       1  UNL1        0.0479
     51 H           4.0770   -0.3520   -1.6406 H       1  UNL1        0.0479
     52 H           2.8765   -2.4540   -1.8727 H       1  UNL1        0.0480
     53 H           3.3370   -2.9285   -0.2688 H       1  UNL1        0.0480
@<TRIPOS>BOND
     1     1     2    2
     2     2     3    1
     3     2    15   am
     4     3     4    1
     5     4     5   ar
     6     4    14   ar
     7     5     6   ar
     8     6     7   ar
     9     7     8    2
    10     7     9   ar
    11     9    10   ar
    12     9    14   ar
    13    10    11   ar
    14    11    12   ar
    15    12    13   ar
    16    13    14   ar
    17    15    16    1
    18    16    17    1
    19    17    18    2
    20    17    19   am
    21    19    20    1
    22    19    31    1
    23    20    21    1
    24    21    22    1
    25    22    23    1
    26    22    30    1
    27    23    24   ar
    28    23    29   ar
    29    24    25   ar
    30    25    26   ar
    31    26    27    1
    32    26    28   ar
    33    28    29   ar
    34    30    31    1
    35     3    32    1
    36     3    33    1
    37     6    34    1
    38    10    35    1
    39    11    36    1
    40    12    37    1
    41    13    38    1
    42    15    39    1
    43    16    40    1
    44    16    41    1
    45    20    42    1
    46    20    43    1
    47    21    44    1
    48    21    45    1
    49    24    46    1
    50    25    47    1
    51    28    48    1
    52    29    49    1
    53    30    50    1
    54    30    51    1
    55    31    52    1
    56    31    53    1
@<TRIPOS>MOLECULE
../data/bude_mols_rdkit_confs2/molecule_7.pdb
 53 56 0 0 0
SMALL
GASTEIGER

@<TRIPOS>ATOM
      1  O1        -2.9400   -0.7500    0.6980 O.2     1  UNL1       -0.2754
      2  C1        -2.9260   -0.6080   -0.5530 C.2     1  UNL1        0.2193
      3  C2        -4.1280   -0.7480   -1.3980 C.3     1  UNL1        0.0685
      4  C3        -5.3480   -1.0700   -0.6360 C.ar    1  UNL1        0.0780
      5  N1        -5.8690   -2.3100   -0.6200 N.ar    1  UNL1       -0.1748
      6  N2        -6.9680   -2.6080    0.0640 N.ar    1  UNL1       -0.2425
      7  C4        -7.6440   -1.6950    0.7930 C.ar    1  UNL1        0.2725
      8  O2        -8.6780   -2.0080    1.4270 O.2     1  UNL1       -0.2658
      9  C5        -7.1580   -0.4110    0.8130 C.ar    1  UNL1        0.0496
     10  C6        -7.8410    0.5240    1.5520 C.ar    1  UNL1       -0.0487
     11  C7        -7.3970    1.8290    1.6070 C.ar    1  UNL1       -0.0610
     12  C8        -6.2620    2.1350    0.9010 C.ar    1  UNL1       -0.0611
     13  C9        -5.5660    1.2020    0.1530 C.ar    1  UNL1       -0.0521
     14  C10       -6.0070   -0.1040    0.0960 C.ar    1  UNL1        0.0108
     15  N3        -1.6910   -0.2980   -1.1840 N.am    1  UNL1       -0.3064
     16  C11       -0.4480   -0.1390   -0.4600 C.3     1  UNL1        0.0883
     17  C12        0.6380    0.1770   -1.4070 C.2     1  UNL1        0.2328
     18  O3         0.3720    0.2670   -2.6500 O.2     1  UNL1       -0.2739
     19  N4         1.9780    0.3880   -0.9980 N.am    1  UNL1       -0.2972
     20  C13        3.0130    0.6940   -1.9510 C.3     1  UNL1        0.0305
     21  C14        4.2750    1.2020   -1.2600 C.3     1  UNL1        0.0280
     22  N5         4.7050    0.2990   -0.2180 N.pl3   1  UNL1       -0.3269
     23  C15        6.0810    0.1210    0.0730 C.ar    1  UNL1        0.0299
     24  C16        6.4620   -0.8150    1.0410 C.ar    1  UNL1       -0.0379
     25  C17        7.7770   -1.0310    1.3680 C.ar    1  UNL1       -0.0247
     26  C18        8.7800   -0.3260    0.7470 C.ar    1  UNL1        0.1235
     27  F1        10.0910   -0.5500    1.0820 F       1  UNL1       -0.2055
     28  C19        8.4350    0.6010   -0.2090 C.ar    1  UNL1       -0.0247
     29  C20        7.0870    0.8090   -0.5310 C.ar    1  UNL1       -0.0379
     30  C21        3.6740   -0.4100    0.5160 C.3     1  UNL1        0.0280
     31  C22        2.3310    0.2950    0.4040 C.3     1  UNL1        0.0305
     32 H          -3.9547   -1.5309   -2.1065 H       1  UNL1        0.0423
     33 H          -4.2925    0.1978   -1.8706 H       1  UNL1        0.0423
     34 H          -7.3034   -3.5332    0.0382 H       1  UNL1        0.1921
     35 H          -8.6908    0.2488    2.0688 H       1  UNL1        0.0625
     36 H          -7.8980    2.5448    2.1563 H       1  UNL1        0.0618
     37 H          -5.9110    3.1051    0.9288 H       1  UNL1        0.0618
     38 H          -4.7171    1.4830   -0.3622 H       1  UNL1        0.0624
     39 H          -1.6805   -0.1859   -2.1620 H       1  UNL1        0.1492
     40 H          -0.2176   -1.0475    0.0561 H       1  UNL1        0.0558
     41 H          -0.5472    0.6584    0.2465 H       1  UNL1        0.0558
     42 H           2.6565    1.4474   -2.6220 H       1  UNL1        0.0480
     43 H           3.2576   -0.2026   -2.4813 H       1  UNL1        0.0480
     44 H           4.0741    2.1605   -0.8290 H       1  UNL1        0.0479
     45 H           5.0545    1.2697   -1.9898 H       1  UNL1        0.0479
     46 H           5.7309   -1.3600    1.5242 H       1  UNL1        0.0637
     47 H           8.0155   -1.7306    2.0882 H       1  UNL1        0.0647
     48 H           9.1695    1.1438   -0.6895 H       1  UNL1        0.0647
     49 H           6.8493    1.5086   -1.2515 H       1  UNL1        0.0637
     50 H           3.9546   -0.4634    1.5472 H       1  UNL1        0.0479
     51 H           3.5763   -1.3904    0.0987 H       1  UNL1        0.0479
     52 H           1.5845   -0.2645    0.9281 H       1  UNL1        0.0480
     53 H           2.3928    1.2733    0.8329 H       1  UNL1        0.0480
@<TRIPOS>BOND
     1     1     2    2
     2     2     3    1
     3     2    15   am
     4     3     4    1
     5     4     5   ar
     6     4    14   ar
     7     5     6   ar
     8     6     7   ar
     9     7     8    2
    10     7     9   ar
    11     9    10   ar
    12     9    14   ar
    13    10    11   ar
    14    11    12   ar
    15    12    13   ar
    16    13    14   ar
    17    15    16    1
    18    16    17    1
    19    17    18    2
    20    17    19   am
    21    19    20    1
    22    19    31    1
    23    20    21    1
    24    21    22    1
    25    22    23    1
    26    22    30    1
    27    23    24   ar
    28    23    29   ar
    29    24    25   ar
    30    25    26   ar
    31    26    27    1
    32    26    28   ar
    33    28    29   ar
    34    30    31    1
    35     3    32    1
    36     3    33    1
    37     6    34    1
    38    10    35    1
    39    11    36    1
    40    12    37    1
    41    13    38    1
    42    15    39    1
    43    16    40    1
    44    16    41    1
    45    20    42    1
    46    20    43    1
    47    21    44    1
    48    21    45    1
    49    24    46    1
    50    25    47    1
    51    28    48    1
    52    29    49    1
    53    30    50    1
    54    30    51    1
    55    31    52    1
    56    31    53    1
@<TRIPOS>MOLECULE
../data/bude_mols_rdkit_confs2/molecule_7.pdb
 53 56 0 0 0
SMALL
GASTEIGER

@<TRIPOS>ATOM
      1  O1        -2.4590   -0.5600    1.2610 O.2     1  UNL1       -0.2754
      2  C1        -2.6200   -1.7830    1.0120 C.2     1  UNL1        0.2193
      3  C2        -3.9780   -2.3100    0.8190 C.3     1  UNL1        0.0685
      4  C3        -4.9510   -1.2020    0.9680 C.ar    1  UNL1        0.0780
      5  N1        -5.7120   -1.0580    2.0720 N.ar    1  UNL1       -0.1748
      6  N2        -6.5730   -0.0690    2.1820 N.ar    1  UNL1       -0.2425
      7  C4        -6.7590    0.8550    1.2270 C.ar    1  UNL1        0.2725
      8  O2        -7.6010    1.7950    1.3710 O.2     1  UNL1       -0.2658
      9  C5        -6.0160    0.7810    0.0580 C.ar    1  UNL1        0.0496
     10  C6        -6.2010    1.7290   -0.9300 C.ar    1  UNL1       -0.0487
     11  C7        -5.4360    1.6110   -2.0720 C.ar    1  UNL1       -0.0610
     12  C8        -4.5270    0.5840   -2.2110 C.ar    1  UNL1       -0.0611
     13  C9        -4.3650   -0.3470   -1.2080 C.ar    1  UNL1       -0.0521
     14  C10       -5.1150   -0.2680   -0.0380 C.ar    1  UNL1        0.0108
     15  N3        -1.5210   -2.6770    0.9090 N.am    1  UNL1       -0.3064
     16  C11       -0.1930   -2.1570    1.0980 C.3     1  UNL1        0.0883
     17  C12        0.0720   -1.1240    0.0810 C.2     1  UNL1        0.2328
     18  O3        -0.8260   -0.8510   -0.7630 O.2     1  UNL1       -0.2739
     19  N4         1.3270   -0.4620    0.0740 N.am    1  UNL1       -0.2972
     20  C13        1.6540    0.5630   -0.9050 C.3     1  UNL1        0.0305
     21  C14        3.1080    0.3580   -1.3080 C.3     1  UNL1        0.0280
     22  N5         3.8790    0.5610   -0.0780 N.pl3   1  UNL1       -0.3269
     23  C15        5.2370    0.9550   -0.1450 C.ar    1  UNL1        0.0299
     24  C16        5.9140    0.9710   -1.3600 C.ar    1  UNL1       -0.0379
     25  C17        7.2310    1.3610   -1.4270 C.ar    1  UNL1       -0.0247
     26  C18        7.9280    1.7480   -0.3010 C.ar    1  UNL1        0.1235
     27  F1         9.2250    2.1330   -0.3560 F       1  UNL1       -0.2055
     28  C19        7.2630    1.7330    0.8980 C.ar    1  UNL1       -0.0247
     29  C20        5.9350    1.3410    0.9740 C.ar    1  UNL1       -0.0379
     30  C21        3.2810    0.3580    1.2240 C.3     1  UNL1        0.0280
     31  C22        2.3110   -0.8170    1.0710 C.3     1  UNL1        0.0305
     32 H          -4.1778   -3.0639    1.5516 H       1  UNL1        0.0423
     33 H          -4.0643   -2.7381   -0.1578 H       1  UNL1        0.0423
     34 H          -7.1074   -0.0038    3.0062 H       1  UNL1        0.1921
     35 H          -6.8840    2.4946   -0.8182 H       1  UNL1        0.0625
     36 H          -5.5457    2.3005   -2.8320 H       1  UNL1        0.0618
     37 H          -3.9636    0.5118   -3.0726 H       1  UNL1        0.0618
     38 H          -3.6807   -1.1105   -1.3255 H       1  UNL1        0.0624
     39 H          -1.6648   -3.6310    0.7127 H       1  UNL1        0.1492
     40 H           0.5192   -2.9492    0.9975 H       1  UNL1        0.0558
     41 H          -0.1101   -1.7291    2.0752 H       1  UNL1        0.0558
     42 H           1.5270    1.5343   -0.4744 H       1  UNL1        0.0480
     43 H           1.0112    0.4910   -1.7574 H       1  UNL1        0.0480
     44 H           3.3951    1.0705   -2.0529 H       1  UNL1        0.0479
     45 H           3.2738   -0.6116   -1.7290 H       1  UNL1        0.0479
     46 H           5.4220    0.6868   -2.2215 H       1  UNL1        0.0637
     47 H           7.7094    1.3643   -2.3414 H       1  UNL1        0.0647
     48 H           7.7585    2.0179    1.7573 H       1  UNL1        0.0647
     49 H           5.4607    1.3391    1.8906 H       1  UNL1        0.0637
     50 H           2.7534    1.2369    1.5308 H       1  UNL1        0.0479
     51 H           4.0241    0.1555    1.9667 H       1  UNL1        0.0479
     52 H           2.8453   -1.6897    0.7582 H       1  UNL1        0.0480
     53 H           1.8327   -1.0260    2.0050 H       1  UNL1        0.0480
@<TRIPOS>BOND
     1     1     2    2
     2     2     3    1
     3     2    15   am
     4     3     4    1
     5     4     5   ar
     6     4    14   ar
     7     5     6   ar
     8     6     7   ar
     9     7     8    2
    10     7     9   ar
    11     9    10   ar
    12     9    14   ar
    13    10    11   ar
    14    11    12   ar
    15    12    13   ar
    16    13    14   ar
    17    15    16    1
    18    16    17    1
    19    17    18    2
    20    17    19   am
    21    19    20    1
    22    19    31    1
    23    20    21    1
    24    21    22    1
    25    22    23    1
    26    22    30    1
    27    23    24   ar
    28    23    29   ar
    29    24    25   ar
    30    25    26   ar
    31    26    27    1
    32    26    28   ar
    33    28    29   ar
    34    30    31    1
    35     3    32    1
    36     3    33    1
    37     6    34    1
    38    10    35    1
    39    11    36    1
    40    12    37    1
    41    13    38    1
    42    15    39    1
    43    16    40    1
    44    16    41    1
    45    20    42    1
    46    20    43    1
    47    21    44    1
    48    21    45    1
    49    24    46    1
    50    25    47    1
    51    28    48    1
    52    29    49    1
    53    30    50    1
    54    30    51    1
    55    31    52    1
    56    31    53    1
@<TRIPOS>MOLECULE
../data/bude_mols_rdkit_confs2/molecule_7.pdb
 53 56 0 0 0
SMALL
GASTEIGER

@<TRIPOS>ATOM
      1  O1        -2.7580    0.5780    0.6240 O.2     1  UNL1       -0.2754
      2  C1        -2.7930   -0.6690    0.7660 C.2     1  UNL1        0.2193
      3  C2        -4.0230   -1.2710    1.2980 C.3     1  UNL1        0.0685
      4  C3        -5.0170   -0.2430    1.5730 C.ar    1  UNL1        0.0780
      5  N1        -5.2690    0.1590    2.8310 N.ar    1  UNL1       -0.1748
      6  N2        -6.1740    1.0990    3.1020 N.ar    1  UNL1       -0.2425
      7  C4        -6.8990    1.7120    2.1590 C.ar    1  UNL1        0.2725
      8  O2        -7.7540    2.6000    2.4190 O.2     1  UNL1       -0.2658
      9  C5        -6.6920    1.3470    0.8430 C.ar    1  UNL1        0.0496
     10  C6        -7.4070    1.9400   -0.1940 C.ar    1  UNL1       -0.0487
     11  C7        -7.1530    1.5310   -1.4830 C.ar    1  UNL1       -0.0610
     12  C8        -6.2190    0.5610   -1.7730 C.ar    1  UNL1       -0.0611
     13  C9        -5.5160   -0.0170   -0.7160 C.ar    1  UNL1       -0.0521
     14  C10       -5.7550    0.3750    0.5690 C.ar    1  UNL1        0.0108
     15  N3        -1.6410   -1.4330    0.4030 N.am    1  UNL1       -0.3064
     16  C11       -0.4950   -0.7280   -0.1080 C.3     1  UNL1        0.0883
     17  C12        0.6210   -1.6480   -0.4420 C.2     1  UNL1        0.2328
     18  O3         0.4570   -2.8690   -0.2550 O.2     1  UNL1       -0.2739
     19  N4         1.8510   -1.1820   -0.9600 N.am    1  UNL1       -0.2972
     20  C13        2.0890    0.2300   -1.1930 C.3     1  UNL1        0.0305
     21  C14        3.4020    0.6500   -0.6440 C.3     1  UNL1        0.0280
     22  N5         4.4240   -0.3380   -0.5380 N.pl3   1  UNL1       -0.3269
     23  C15        5.7500    0.1830   -0.2570 C.ar    1  UNL1        0.0299
     24  C16        6.7960   -0.6930   -0.1880 C.ar    1  UNL1       -0.0379
     25  C17        8.0780   -0.2360    0.0790 C.ar    1  UNL1       -0.0247
     26  C18        8.2940    1.1170    0.2750 C.ar    1  UNL1        0.1235
     27  F1         9.5370    1.5940    0.5370 F       1  UNL1       -0.2055
     28  C19        7.2620    2.0070    0.2100 C.ar    1  UNL1       -0.0247
     29  C20        5.9910    1.5220   -0.0590 C.ar    1  UNL1       -0.0379
     30  C21        4.2150   -1.7400   -0.6780 C.3     1  UNL1        0.0280
     31  C22        2.9120   -2.1130   -1.2770 C.3     1  UNL1        0.0305
     32 H          -3.7961   -1.7927    2.2042 H       1  UNL1        0.0423
     33 H          -4.4187   -1.9490    0.5709 H       1  UNL1        0.0423
     34 H          -6.3161    1.3549    4.0420 H       1  UNL1        0.1921
     35 H          -8.1111    2.6693   -0.0005 H       1  UNL1        0.0625
     36 H          -7.6792    1.9650   -2.2575 H       1  UNL1        0.0618
     37 H          -6.0439    0.2694   -2.7473 H       1  UNL1        0.0618
     38 H          -4.8107   -0.7457   -0.9070 H       1  UNL1        0.0624
     39 H          -1.6316   -2.4127    0.4996 H       1  UNL1        0.1492
     40 H          -0.1592   -0.0322    0.6323 H       1  UNL1        0.0558
     41 H          -0.7893   -0.2261   -1.0060 H       1  UNL1        0.0558
     42 H           1.3151    0.7973   -0.7196 H       1  UNL1        0.0480
     43 H           2.0917    0.4037   -2.2488 H       1  UNL1        0.0480
     44 H           3.2284    1.0365    0.3385 H       1  UNL1        0.0479
     45 H           3.7797    1.3535   -1.3563 H       1  UNL1        0.0479
     46 H           6.6313   -1.7010   -0.3355 H       1  UNL1        0.0637
     47 H           8.8658   -0.9006    0.1312 H       1  UNL1        0.0647
     48 H           7.4232    3.0156    0.3573 H       1  UNL1        0.0647
     49 H           5.2026    2.1858   -0.1121 H       1  UNL1        0.0637
     50 H           4.2754   -2.1850    0.2932 H       1  UNL1        0.0479
     51 H           4.9695   -2.0934   -1.3494 H       1  UNL1        0.0479
     52 H           3.0250   -2.1505   -2.3404 H       1  UNL1        0.0480
     53 H           2.6345   -3.0621   -0.8683 H       1  UNL1        0.0480
@<TRIPOS>BOND
     1     1     2    2
     2     2     3    1
     3     2    15   am
     4     3     4    1
     5     4     5   ar
     6     4    14   ar
     7     5     6   ar
     8     6     7   ar
     9     7     8    2
    10     7     9   ar
    11     9    10   ar
    12     9    14   ar
    13    10    11   ar
    14    11    12   ar
    15    12    13   ar
    16    13    14   ar
    17    15    16    1
    18    16    17    1
    19    17    18    2
    20    17    19   am
    21    19    20    1
    22    19    31    1
    23    20    21    1
    24    21    22    1
    25    22    23    1
    26    22    30    1
    27    23    24   ar
    28    23    29   ar
    29    24    25   ar
    30    25    26   ar
    31    26    27    1
    32    26    28   ar
    33    28    29   ar
    34    30    31    1
    35     3    32    1
    36     3    33    1
    37     6    34    1
    38    10    35    1
    39    11    36    1
    40    12    37    1
    41    13    38    1
    42    15    39    1
    43    16    40    1
    44    16    41    1
    45    20    42    1
    46    20    43    1
    47    21    44    1
    48    21    45    1
    49    24    46    1
    50    25    47    1
    51    28    48    1
    52    29    49    1
    53    30    50    1
    54    30    51    1
    55    31    52    1
    56    31    53    1
@<TRIPOS>MOLECULE
../data/bude_mols_rdkit_confs2/molecule_7.pdb
 53 56 0 0 0
SMALL
GASTEIGER

@<TRIPOS>ATOM
      1  O1         2.1650   -2.1040   -0.5800 O.2     1  UNL1       -0.2754
      2  C1         2.1360   -1.7530   -1.7820 C.2     1  UNL1        0.2193
      3  C2         2.9440   -0.6240   -2.3340 C.3     1  UNL1        0.0685
      4  C3         3.7890    0.0160   -1.3050 C.ar    1  UNL1        0.0780
      5  N1         5.1120   -0.2870   -1.1860 N.ar    1  UNL1       -0.1748
      6  N2         5.8730    0.2560   -0.2590 N.ar    1  UNL1       -0.2425
      7  C4         5.4180    1.1420    0.6360 C.ar    1  UNL1        0.2725
      8  O2         6.1420    1.6640    1.5260 O.2     1  UNL1       -0.2658
      9  C5         4.0840    1.5100    0.5910 C.ar    1  UNL1        0.0496
     10  C6         3.5720    2.4200    1.4830 C.ar    1  UNL1       -0.0487
     11  C7         2.2450    2.7540    1.3870 C.ar    1  UNL1       -0.0610
     12  C8         1.4590    2.1790    0.4090 C.ar    1  UNL1       -0.0611
     13  C9         1.9540    1.2750   -0.4810 C.ar    1  UNL1       -0.0521
     14  C10        3.2880    0.9240   -0.4010 C.ar    1  UNL1        0.0108
     15  N3         1.2670   -2.5060   -2.6470 N.am    1  UNL1       -0.3064
     16  C11        0.4510   -3.5980   -2.2690 C.3     1  UNL1        0.0883
     17  C12       -0.6610   -3.4750   -1.3840 C.2     1  UNL1        0.2328
     18  O3        -1.2310   -4.6150   -1.0700 O.2     1  UNL1       -0.2739
     19  N4        -1.2510   -2.3650   -0.7990 N.am    1  UNL1       -0.2972
     20  C13       -0.8460   -1.0210   -1.0480 C.3     1  UNL1        0.0305
     21  C14       -2.0400   -0.0530   -0.9440 C.3     1  UNL1        0.0280
     22  N5        -2.6260   -0.1380    0.3720 N.pl3   1  UNL1       -0.3269
     23  C15       -3.3570    0.9320    0.9170 C.ar    1  UNL1        0.0299
     24  C16       -3.8600    0.8970    2.2010 C.ar    1  UNL1       -0.0379
     25  C17       -4.5880    1.9710    2.7240 C.ar    1  UNL1       -0.0247
     26  C18       -4.8200    3.0940    1.9610 C.ar    1  UNL1        0.1235
     27  F1        -5.5320    4.1560    2.4610 F       1  UNL1       -0.2055
     28  C19       -4.3270    3.1530    0.6750 C.ar    1  UNL1       -0.0247
     29  C20       -3.6100    2.0890    0.1680 C.ar    1  UNL1       -0.0379
     30  C21       -2.4320   -1.3620    1.0960 C.3     1  UNL1        0.0280
     31  C22       -2.3730   -2.5520    0.1450 C.3     1  UNL1        0.0305
     32 H           2.2786    0.1100   -2.7382 H       1  UNL1        0.0423
     33 H           3.5908   -1.0221   -3.0877 H       1  UNL1        0.0423
     34 H           6.8224   -0.0018   -0.2220 H       1  UNL1        0.1921
     35 H           4.1717    2.8428    2.2087 H       1  UNL1        0.0625
     36 H           1.8348    3.4346    2.0454 H       1  UNL1        0.0618
     37 H           0.4631    2.4429    0.3503 H       1  UNL1        0.0618
     38 H           1.3438    0.8596   -1.2022 H       1  UNL1        0.0624
     39 H           1.2375   -2.2352   -3.5930 H       1  UNL1        0.1492
     40 H           1.1074   -4.3124   -1.8178 H       1  UNL1        0.0558
     41 H          -0.0388   -3.8251   -3.1928 H       1  UNL1        0.0558
     42 H          -0.4299   -0.9581   -2.0318 H       1  UNL1        0.0480
     43 H          -0.1190   -0.7437   -0.3134 H       1  UNL1        0.0480
     44 H          -2.7741   -0.3146   -1.6772 H       1  UNL1        0.0479
     45 H          -1.6996    0.9469   -1.1149 H       1  UNL1        0.0479
     46 H          -3.6962    0.0631    2.7866 H       1  UNL1        0.0637
     47 H          -4.9536    1.9216    3.6878 H       1  UNL1        0.0647
     48 H          -4.4936    3.9895    0.0940 H       1  UNL1        0.0647
     49 H          -3.2473    2.1472   -0.7964 H       1  UNL1        0.0637
     50 H          -3.2451   -1.4984    1.7781 H       1  UNL1        0.0479
     51 H          -1.5051   -1.3022    1.6272 H       1  UNL1        0.0479
     52 H          -2.2229   -3.4510    0.7056 H       1  UNL1        0.0480
     53 H          -3.2919   -2.6235   -0.3986 H       1  UNL1        0.0480
@<TRIPOS>BOND
     1     1     2    2
     2     2     3    1
     3     2    15   am
     4     3     4    1
     5     4     5   ar
     6     4    14   ar
     7     5     6   ar
     8     6     7   ar
     9     7     8    2
    10     7     9   ar
    11     9    10   ar
    12     9    14   ar
    13    10    11   ar
    14    11    12   ar
    15    12    13   ar
    16    13    14   ar
    17    15    16    1
    18    16    17    1
    19    17    18    2
    20    17    19   am
    21    19    20    1
    22    19    31    1
    23    20    21    1
    24    21    22    1
    25    22    23    1
    26    22    30    1
    27    23    24   ar
    28    23    29   ar
    29    24    25   ar
    30    25    26   ar
    31    26    27    1
    32    26    28   ar
    33    28    29   ar
    34    30    31    1
    35     3    32    1
    36     3    33    1
    37     6    34    1
    38    10    35    1
    39    11    36    1
    40    12    37    1
    41    13    38    1
    42    15    39    1
    43    16    40    1
    44    16    41    1
    45    20    42    1
    46    20    43    1
    47    21    44    1
    48    21    45    1
    49    24    46    1
    50    25    47    1
    51    28    48    1
    52    29    49    1
    53    30    50    1
    54    30    51    1
    55    31    52    1
    56    31    53    1
@<TRIPOS>MOLECULE
../data/bude_mols_rdkit_confs2/molecule_7.pdb
 53 56 0 0 0
SMALL
GASTEIGER

@<TRIPOS>ATOM
      1  O1        -2.0630   -0.5970   -0.6520 O.2     1  UNL1       -0.2754
      2  C1        -1.5260   -1.0670    0.3810 C.2     1  UNL1        0.2193
      3  C2        -2.0120   -0.5970    1.7090 C.3     1  UNL1        0.0685
      4  C3        -3.1010    0.3890    1.5760 C.ar    1  UNL1        0.0780
      5  N1        -2.9340    1.7040    1.7580 N.ar    1  UNL1       -0.1748
      6  N2        -3.9210    2.5920    1.6360 N.ar    1  UNL1       -0.2425
      7  C4        -5.1700    2.2140    1.3160 C.ar    1  UNL1        0.2725
      8  O2        -6.1000    3.0510    1.2010 O.2     1  UNL1       -0.2658
      9  C5        -5.3960    0.8690    1.1170 C.ar    1  UNL1        0.0496
     10  C6        -6.6480    0.3990    0.7870 C.ar    1  UNL1       -0.0487
     11  C7        -6.8680   -0.9520    0.5890 C.ar    1  UNL1       -0.0610
     12  C8        -5.8350   -1.8690    0.7190 C.ar    1  UNL1       -0.0611
     13  C9        -4.5700   -1.4140    1.0500 C.ar    1  UNL1       -0.0521
     14  C10       -4.3660   -0.0650    1.2440 C.ar    1  UNL1        0.0108
     15  N3        -0.4630   -2.0410    0.3230 N.am    1  UNL1       -0.3064
     16  C11        0.0300   -2.5100   -0.9140 C.3     1  UNL1        0.0883
     17  C12        0.7040   -1.5010   -1.7220 C.2     1  UNL1        0.2328
     18  O3         1.0310   -1.9860   -2.9120 O.2     1  UNL1       -0.2739
     19  N4         1.0610   -0.1800   -1.4910 N.am    1  UNL1       -0.2972
     20  C13        0.9190    0.5890   -0.3060 C.3     1  UNL1        0.0305
     21  C14        2.0890    1.6050   -0.2600 C.3     1  UNL1        0.0280
     22  N5         3.2240    0.9940   -0.8670 N.pl3   1  UNL1       -0.3269
     23  C15        4.4330    0.6570   -0.1840 C.ar    1  UNL1        0.0299
     24  C16        5.5600    0.2440   -0.8580 C.ar    1  UNL1       -0.0379
     25  C17        6.7390   -0.0950   -0.1830 C.ar    1  UNL1       -0.0247
     26  C18        6.8160   -0.0280    1.1890 C.ar    1  UNL1        0.1235
     27  F1         7.9600   -0.3560    1.8620 F       1  UNL1       -0.2055
     28  C19        5.6900    0.3840    1.8660 C.ar    1  UNL1       -0.0247
     29  C20        4.5210    0.7200    1.1950 C.ar    1  UNL1       -0.0379
     30  C21        3.1570    0.6740   -2.3000 C.3     1  UNL1        0.0280
     31  C22        1.6760    0.5540   -2.6300 C.3     1  UNL1        0.0305
     32 H          -1.1977   -0.1448    2.2356 H       1  UNL1        0.0423
     33 H          -2.3925   -1.4429    2.2424 H       1  UNL1        0.0423
     34 H          -3.7303    3.5465    1.7838 H       1  UNL1        0.1921
     35 H          -7.4315    1.0631    0.6863 H       1  UNL1        0.0625
     36 H          -7.8137   -1.2826    0.3411 H       1  UNL1        0.0618
     37 H          -6.0071   -2.8757    0.5711 H       1  UNL1        0.0618
     38 H          -3.7871   -2.0789    1.1505 H       1  UNL1        0.0624
     39 H          -0.0750   -2.3843    1.1601 H       1  UNL1        0.1492
     40 H          -0.7947   -2.8927   -1.4782 H       1  UNL1        0.0558
     41 H           0.7640   -3.2541   -0.6848 H       1  UNL1        0.0558
     42 H           0.9583   -0.0510    0.5506 H       1  UNL1        0.0480
     43 H          -0.0212    1.0999   -0.3013 H       1  UNL1        0.0480
     44 H           2.3117    1.8572    0.7557 H       1  UNL1        0.0479
     45 H           1.8249    2.5013   -0.7814 H       1  UNL1        0.0479
     46 H           5.5353    0.1826   -1.8879 H       1  UNL1        0.0637
     47 H           7.5636   -0.4001   -0.7234 H       1  UNL1        0.0647
     48 H           5.7151    0.4446    2.8959 H       1  UNL1        0.0647
     49 H           3.6981    1.0240    1.7386 H       1  UNL1        0.0637
     50 H           3.6591   -0.2497   -2.4993 H       1  UNL1        0.0479
     51 H           3.6328    1.4262   -2.8939 H       1  UNL1        0.0479
     52 H           1.2368    1.5248   -2.7274 H       1  UNL1        0.0480
     53 H           1.5208    0.0416   -3.5564 H       1  UNL1        0.0480
@<TRIPOS>BOND
     1     1     2    2
     2     2     3    1
     3     2    15   am
     4     3     4    1
     5     4     5   ar
     6     4    14   ar
     7     5     6   ar
     8     6     7   ar
     9     7     8    2
    10     7     9   ar
    11     9    10   ar
    12     9    14   ar
    13    10    11   ar
    14    11    12   ar
    15    12    13   ar
    16    13    14   ar
    17    15    16    1
    18    16    17    1
    19    17    18    2
    20    17    19   am
    21    19    20    1
    22    19    31    1
    23    20    21    1
    24    21    22    1
    25    22    23    1
    26    22    30    1
    27    23    24   ar
    28    23    29   ar
    29    24    25   ar
    30    25    26   ar
    31    26    27    1
    32    26    28   ar
    33    28    29   ar
    34    30    31    1
    35     3    32    1
    36     3    33    1
    37     6    34    1
    38    10    35    1
    39    11    36    1
    40    12    37    1
    41    13    38    1
    42    15    39    1
    43    16    40    1
    44    16    41    1
    45    20    42    1
    46    20    43    1
    47    21    44    1
    48    21    45    1
    49    24    46    1
    50    25    47    1
    51    28    48    1
    52    29    49    1
    53    30    50    1
    54    30    51    1
    55    31    52    1
    56    31    53    1
@<TRIPOS>MOLECULE
../data/bude_mols_rdkit_confs2/molecule_7.pdb
 53 56 0 0 0
SMALL
GASTEIGER

@<TRIPOS>ATOM
      1  O1        -1.0770   -1.9400   -1.4870 O.2     1  UNL1       -0.2754
      2  C1        -2.1290   -1.6870   -0.8310 C.2     1  UNL1        0.2193
      3  C2        -3.4010   -2.1090   -1.4540 C.3     1  UNL1        0.0685
      4  C3        -4.5810   -1.8470   -0.5730 C.ar    1  UNL1        0.0780
      5  N1        -5.1950   -2.8390    0.0980 N.ar    1  UNL1       -0.1748
      6  N2        -6.2400   -2.6070    0.8760 N.ar    1  UNL1       -0.2425
      7  C4        -6.7740   -1.3860    1.0650 C.ar    1  UNL1        0.2725
      8  O2        -7.7780   -1.2340    1.8260 O.2     1  UNL1       -0.2658
      9  C5        -6.1860   -0.3300    0.4020 C.ar    1  UNL1        0.0496
     10  C6        -6.6960    0.9420    0.5640 C.ar    1  UNL1       -0.0487
     11  C7        -6.1130    2.0030   -0.0950 C.ar    1  UNL1       -0.0610
     12  C8        -5.0170    1.7400   -0.9070 C.ar    1  UNL1       -0.0611
     13  C9        -4.4950    0.4790   -1.0810 C.ar    1  UNL1       -0.0521
     14  C10       -5.0910   -0.5740   -0.4130 C.ar    1  UNL1        0.0108
     15  N3        -2.0420   -1.0360    0.4210 N.am    1  UNL1       -0.3064
     16  C11       -0.7590   -0.6660    0.9390 C.3     1  UNL1        0.0883
     17  C12       -0.0420    0.2800    0.0280 C.2     1  UNL1        0.2328
     18  O3        -0.6390    0.6140   -1.0290 O.2     1  UNL1       -0.2739
     19  N4         1.2490    0.7710    0.3530 N.am    1  UNL1       -0.2972
     20  C13        1.8830    0.3490    1.5880 C.3     1  UNL1        0.0305
     21  C14        3.3040   -0.0450    1.3910 C.3     1  UNL1        0.0280
     22  N5         4.0280    0.7940    0.4330 N.pl3   1  UNL1       -0.3269
     23  C15        5.4100    0.5080    0.2960 C.ar    1  UNL1        0.0299
     24  C16        5.9490   -0.5910    0.9020 C.ar    1  UNL1       -0.0379
     25  C17        7.3020   -0.8600    0.7660 C.ar    1  UNL1       -0.0247
     26  C18        8.1080   -0.0260    0.0230 C.ar    1  UNL1        0.1235
     27  F1         9.4370   -0.2490   -0.1390 F       1  UNL1       -0.2055
     28  C19        7.5540    1.0780   -0.5820 C.ar    1  UNL1       -0.0247
     29  C20        6.2030    1.3410   -0.4430 C.ar    1  UNL1       -0.0379
     30  C21        3.3770    1.8400   -0.3200 C.3     1  UNL1        0.0280
     31  C22        1.9160    1.6710   -0.5370 C.3     1  UNL1        0.0305
     32 H          -3.3517   -3.1579   -1.6597 H       1  UNL1        0.0423
     33 H          -3.5301   -1.5397   -2.3507 H       1  UNL1        0.0423
     34 H          -6.6500   -3.3706    1.3429 H       1  UNL1        0.1921
     35 H          -7.5115    1.0984    1.1768 H       1  UNL1        0.0625
     36 H          -6.4790    2.9620    0.0114 H       1  UNL1        0.0618
     37 H          -4.5730    2.5283   -1.4035 H       1  UNL1        0.0618
     38 H          -3.6797    0.3234   -1.6943 H       1  UNL1        0.0624
     39 H          -2.8587   -0.8381    0.9339 H       1  UNL1        0.1492
     40 H          -0.1660   -1.5487    1.0575 H       1  UNL1        0.0558
     41 H          -0.9092   -0.1738    1.8771 H       1  UNL1        0.0558
     42 H           1.3457   -0.4886    1.9812 H       1  UNL1        0.0480
     43 H           1.8654    1.1787    2.2634 H       1  UNL1        0.0480
     44 H           3.3273   -1.0550    1.0384 H       1  UNL1        0.0479
     45 H           3.7917    0.0731    2.3361 H       1  UNL1        0.0479
     46 H           5.3503   -1.2197    1.4599 H       1  UNL1        0.0637
     47 H           7.7081   -1.6906    1.2245 H       1  UNL1        0.0647
     48 H           8.1472    1.7113   -1.1406 H       1  UNL1        0.0647
     49 H           5.7917    2.1702   -0.8995 H       1  UNL1        0.0637
     50 H           3.8469    1.8940   -1.2798 H       1  UNL1        0.0479
     51 H           3.4816    2.7279    0.2679 H       1  UNL1        0.0479
     52 H           1.4568    2.6321   -0.4353 H       1  UNL1        0.0480
     53 H           1.8174    1.2390   -1.5109 H       1  UNL1        0.0480
@<TRIPOS>BOND
     1     1     2    2
     2     2     3    1
     3     2    15   am
     4     3     4    1
     5     4     5   ar
     6     4    14   ar
     7     5     6   ar
     8     6     7   ar
     9     7     8    2
    10     7     9   ar
    11     9    10   ar
    12     9    14   ar
    13    10    11   ar
    14    11    12   ar
    15    12    13   ar
    16    13    14   ar
    17    15    16    1
    18    16    17    1
    19    17    18    2
    20    17    19   am
    21    19    20    1
    22    19    31    1
    23    20    21    1
    24    21    22    1
    25    22    23    1
    26    22    30    1
    27    23    24   ar
    28    23    29   ar
    29    24    25   ar
    30    25    26   ar
    31    26    27    1
    32    26    28   ar
    33    28    29   ar
    34    30    31    1
    35     3    32    1
    36     3    33    1
    37     6    34    1
    38    10    35    1
    39    11    36    1
    40    12    37    1
    41    13    38    1
    42    15    39    1
    43    16    40    1
    44    16    41    1
    45    20    42    1
    46    20    43    1
    47    21    44    1
    48    21    45    1
    49    24    46    1
    50    25    47    1
    51    28    48    1
    52    29    49    1
    53    30    50    1
    54    30    51    1
    55    31    52    1
    56    31    53    1
@<TRIPOS>MOLECULE
../data/bude_mols_rdkit_confs2/molecule_7.pdb
 53 56 0 0 0
SMALL
GASTEIGER

@<TRIPOS>ATOM
      1  O1        -2.5190    0.1070    0.0750 O.2     1  UNL1       -0.2754
      2  C1        -2.6600   -1.1260   -0.1280 C.2     1  UNL1        0.2193
      3  C2        -3.9110   -1.7880    0.2950 C.3     1  UNL1        0.0685
      4  C3        -4.8240   -0.8320    0.9110 C.ar    1  UNL1        0.0780
      5  N1        -5.0040   -0.7720    2.2410 N.ar    1  UNL1       -0.1748
      6  N2        -5.8290    0.0920    2.7970 N.ar    1  UNL1       -0.2425
      7  C4        -6.5290    0.9570    2.0380 C.ar    1  UNL1        0.2725
      8  O2        -7.3160    1.7800    2.5770 O.2     1  UNL1       -0.2658
      9  C5        -6.4160    0.9760    0.6630 C.ar    1  UNL1        0.0496
     10  C6        -7.1130    1.8410   -0.1450 C.ar    1  UNL1       -0.0487
     11  C7        -6.9630    1.8180   -1.5130 C.ar    1  UNL1       -0.0610
     12  C8        -6.0890    0.8970   -2.0520 C.ar    1  UNL1       -0.0611
     13  C9        -5.3960    0.0360   -1.2430 C.ar    1  UNL1       -0.0521
     14  C10       -5.5320    0.0430    0.1220 C.ar    1  UNL1        0.0108
     15  N3        -1.5890   -1.8100   -0.7580 N.am    1  UNL1       -0.3064
     16  C11       -0.3630   -1.1540   -1.1690 C.3     1  UNL1        0.0883
     17  C12        0.3170   -0.5470    0.0180 C.2     1  UNL1        0.2328
     18  O3        -0.2220   -0.6710    1.1430 O.2     1  UNL1       -0.2739
     19  N4         1.5340    0.1560   -0.0830 N.am    1  UNL1       -0.2972
     20  C13        2.1440    0.7160    1.0870 C.3     1  UNL1        0.0305
     21  C14        3.5790    1.1410    0.8880 C.3     1  UNL1        0.0280
     22  N5         4.2330    0.3210   -0.0990 N.pl3   1  UNL1       -0.3269
     23  C15        5.6520    0.1080    0.0260 C.ar    1  UNL1        0.0299
     24  C16        6.2560   -0.8140   -0.8020 C.ar    1  UNL1       -0.0379
     25  C17        7.6070   -1.0490   -0.7240 C.ar    1  UNL1       -0.0247
     26  C18        8.3870   -0.3730    0.1790 C.ar    1  UNL1        0.1235
     27  F1         9.7360   -0.6170    0.2480 F       1  UNL1       -0.2055
     28  C19        7.7850    0.5470    1.0050 C.ar    1  UNL1       -0.0247
     29  C20        6.4200    0.8030    0.9450 C.ar    1  UNL1       -0.0379
     30  C21        3.5590   -0.2970   -1.2170 C.3     1  UNL1        0.0280
     31  C22        2.1830    0.3170   -1.3670 C.3     1  UNL1        0.0305
     32 H          -3.6787   -2.5563    1.0026 H       1  UNL1        0.0423
     33 H          -4.3853   -2.2056   -0.5685 H       1  UNL1        0.0423
     34 H          -5.9347    0.1054    3.7757 H       1  UNL1        0.1921
     35 H          -7.7614    2.5210    0.2818 H       1  UNL1        0.0625
     36 H          -7.4882    2.4697   -2.1168 H       1  UNL1        0.0618
     37 H          -5.9560    0.8563   -3.0746 H       1  UNL1        0.0618
     38 H          -4.7489   -0.6417   -1.6755 H       1  UNL1        0.0624
     39 H          -1.6825   -2.7759   -0.9241 H       1  UNL1        0.1492
     40 H          -0.5929   -0.3853   -1.8769 H       1  UNL1        0.0558
     41 H           0.2885   -1.8760   -1.6152 H       1  UNL1        0.0558
     42 H           2.1153   -0.0177    1.8653 H       1  UNL1        0.0480
     43 H           1.5910    1.5986    1.3320 H       1  UNL1        0.0480
     44 H           4.1015    1.0519    1.8175 H       1  UNL1        0.0479
     45 H           3.5878    2.1548    0.5459 H       1  UNL1        0.0479
     46 H           5.6866   -1.3335   -1.4882 H       1  UNL1        0.0637
     47 H           8.0406   -1.7430   -1.3528 H       1  UNL1        0.0647
     48 H           8.3625    1.0615    1.6882 H       1  UNL1        0.0647
     49 H           5.9872    1.4978    1.5734 H       1  UNL1        0.0637
     50 H           3.4651   -1.3484   -1.0421 H       1  UNL1        0.0479
     51 H           4.1242   -0.1378   -2.1115 H       1  UNL1        0.0479
     52 H           2.2636    1.3546   -1.6157 H       1  UNL1        0.0480
     53 H           1.6262   -0.1538   -2.1501 H       1  UNL1        0.0480
@<TRIPOS>BOND
     1     1     2    2
     2     2     3    1
     3     2    15   am
     4     3     4    1
     5     4     5   ar
     6     4    14   ar
     7     5     6   ar
     8     6     7   ar
     9     7     8    2
    10     7     9   ar
    11     9    10   ar
    12     9    14   ar
    13    10    11   ar
    14    11    12   ar
    15    12    13   ar
    16    13    14   ar
    17    15    16    1
    18    16    17    1
    19    17    18    2
    20    17    19   am
    21    19    20    1
    22    19    31    1
    23    20    21    1
    24    21    22    1
    25    22    23    1
    26    22    30    1
    27    23    24   ar
    28    23    29   ar
    29    24    25   ar
    30    25    26   ar
    31    26    27    1
    32    26    28   ar
    33    28    29   ar
    34    30    31    1
    35     3    32    1
    36     3    33    1
    37     6    34    1
    38    10    35    1
    39    11    36    1
    40    12    37    1
    41    13    38    1
    42    15    39    1
    43    16    40    1
    44    16    41    1
    45    20    42    1
    46    20    43    1
    47    21    44    1
    48    21    45    1
    49    24    46    1
    50    25    47    1
    51    28    48    1
    52    29    49    1
    53    30    50    1
    54    30    51    1
    55    31    52    1
    56    31    53    1
@<TRIPOS>MOLECULE
../data/bude_mols_rdkit_confs2/molecule_7.pdb
 53 56 0 0 0
SMALL
GASTEIGER

@<TRIPOS>ATOM
      1  O1        -2.4360    0.1690    0.0090 O.2     1  UNL1       -0.2754
      2  C1        -2.7180   -0.9630    0.4710 C.2     1  UNL1        0.2193
      3  C2        -4.0510   -1.5730    0.2440 C.3     1  UNL1        0.0685
      4  C3        -4.9380   -0.7080   -0.5540 C.ar    1  UNL1        0.0780
      5  N1        -5.2210   -0.9190   -1.8620 N.ar    1  UNL1       -0.1748
      6  N2        -6.0210   -0.1280   -2.5560 N.ar    1  UNL1       -0.2425
      7  C4        -6.6240    0.9510   -2.0330 C.ar    1  UNL1        0.2725
      8  O2        -7.3930    1.6960   -2.7300 O.2     1  UNL1       -0.2658
      9  C5        -6.3820    1.2290   -0.7020 C.ar    1  UNL1        0.0496
     10  C6        -6.9990    2.3440   -0.1400 C.ar    1  UNL1       -0.0487
     11  C7        -6.7430    2.6010    1.1910 C.ar    1  UNL1       -0.0610
     12  C8        -5.9030    1.7690    1.9150 C.ar    1  UNL1       -0.0611
     13  C9        -5.3130    0.6820    1.3350 C.ar    1  UNL1       -0.0521
     14  C10       -5.5480    0.3980    0.0090 C.ar    1  UNL1        0.0108
     15  N3        -1.7160   -1.6330    1.2160 N.am    1  UNL1       -0.3064
     16  C11       -0.4030   -1.0860    1.4670 C.3     1  UNL1        0.0883
     17  C12        0.2680   -0.8550    0.1710 C.2     1  UNL1        0.2328
     18  O3        -0.3490   -1.1480   -0.8810 O.2     1  UNL1       -0.2739
     19  N4         1.5800   -0.3180    0.0700 N.am    1  UNL1       -0.2972
     20  C13        2.1470   -0.1300   -1.2460 C.3     1  UNL1        0.0305
     21  C14        3.4090   -1.0120   -1.2680 C.3     1  UNL1        0.0280
     22  N5         4.2910   -0.4160   -0.3090 N.pl3   1  UNL1       -0.3269
     23  C15        5.6410   -0.1380   -0.6360 C.ar    1  UNL1        0.0299
     24  C16        6.0750   -0.1200   -1.9370 C.ar    1  UNL1       -0.0379
     25  C17        7.3960    0.1380   -2.2840 C.ar    1  UNL1       -0.0247
     26  C18        8.2740    0.3830   -1.2520 C.ar    1  UNL1        0.1235
     27  F1         9.5880    0.6450   -1.5200 F       1  UNL1       -0.2055
     28  C19        7.8510    0.3670    0.0470 C.ar    1  UNL1       -0.0247
     29  C20        6.5630    0.1140    0.3720 C.ar    1  UNL1       -0.0379
     30  C21        3.8490   -0.0600    1.0280 C.3     1  UNL1        0.0280
     31  C22        2.3790    0.0530    1.2020 C.3     1  UNL1        0.0305
     32 H          -4.5114   -1.7548    1.1926 H       1  UNL1        0.0423
     33 H          -3.9045   -2.4813   -0.3023 H       1  UNL1        0.0423
     34 H          -6.1825   -0.3409   -3.5035 H       1  UNL1        0.1921
     35 H          -7.6210    2.9519   -0.6955 H       1  UNL1        0.0625
     36 H          -7.1787    3.4163    1.6498 H       1  UNL1        0.0618
     37 H          -5.7202    1.9745    2.9097 H       1  UNL1        0.0618
     38 H          -4.6914    0.0741    1.8909 H       1  UNL1        0.0624
     39 H          -1.9268   -2.5217    1.5834 H       1  UNL1        0.1492
     40 H           0.1692   -1.7762    2.0511 H       1  UNL1        0.0558
     41 H          -0.4879   -0.1642    2.0037 H       1  UNL1        0.0558
     42 H           2.4036    0.8971   -1.4014 H       1  UNL1        0.0480
     43 H           1.4586   -0.3952   -2.0211 H       1  UNL1        0.0480
     44 H           3.8535   -1.0092   -2.2413 H       1  UNL1        0.0479
     45 H           3.1911   -2.0334   -1.0352 H       1  UNL1        0.0479
     46 H           5.3929   -0.3056   -2.6889 H       1  UNL1        0.0637
     47 H           7.7043    0.1456   -3.2689 H       1  UNL1        0.0647
     48 H           8.5321    0.5528    0.7997 H       1  UNL1        0.0647
     49 H           6.2674    0.1082    1.3608 H       1  UNL1        0.0637
     50 H           4.2851    0.8841    1.2797 H       1  UNL1        0.0479
     51 H           4.1614   -0.8606    1.6655 H       1  UNL1        0.0479
     52 H           2.0974   -0.5752    2.0211 H       1  UNL1        0.0480
     53 H           2.1872    1.0936    1.3610 H       1  UNL1        0.0480
@<TRIPOS>BOND
     1     1     2    2
     2     2     3    1
     3     2    15   am
     4     3     4    1
     5     4     5   ar
     6     4    14   ar
     7     5     6   ar
     8     6     7   ar
     9     7     8    2
    10     7     9   ar
    11     9    10   ar
    12     9    14   ar
    13    10    11   ar
    14    11    12   ar
    15    12    13   ar
    16    13    14   ar
    17    15    16    1
    18    16    17    1
    19    17    18    2
    20    17    19   am
    21    19    20    1
    22    19    31    1
    23    20    21    1
    24    21    22    1
    25    22    23    1
    26    22    30    1
    27    23    24   ar
    28    23    29   ar
    29    24    25   ar
    30    25    26   ar
    31    26    27    1
    32    26    28   ar
    33    28    29   ar
    34    30    31    1
    35     3    32    1
    36     3    33    1
    37     6    34    1
    38    10    35    1
    39    11    36    1
    40    12    37    1
    41    13    38    1
    42    15    39    1
    43    16    40    1
    44    16    41    1
    45    20    42    1
    46    20    43    1
    47    21    44    1
    48    21    45    1
    49    24    46    1
    50    25    47    1
    51    28    48    1
    52    29    49    1
    53    30    50    1
    54    30    51    1
    55    31    52    1
    56    31    53    1
@<TRIPOS>MOLECULE
../data/bude_mols_rdkit_confs2/molecule_7.pdb
 53 56 0 0 0
SMALL
GASTEIGER

@<TRIPOS>ATOM
      1  O1        -2.2510    0.1880   -0.2800 O.2     1  UNL1       -0.2754
      2  C1        -2.6200   -0.5190   -1.2700 C.2     1  UNL1        0.2193
      3  C2        -4.0200   -0.4830   -1.7490 C.3     1  UNL1        0.0685
      4  C3        -4.8710    0.4240   -0.9710 C.ar    1  UNL1        0.0780
      5  N1        -5.2210    1.6160   -1.4820 N.ar    1  UNL1       -0.1748
      6  N2        -5.9810    2.4970   -0.8630 N.ar    1  UNL1       -0.2425
      7  C4        -6.4480    2.1970    0.3670 C.ar    1  UNL1        0.2725
      8  O2        -7.1790    2.9780    1.0280 O.2     1  UNL1       -0.2658
      9  C5        -6.1180    0.9780    0.9430 C.ar    1  UNL1        0.0496
     10  C6        -6.5710    0.6220    2.2000 C.ar    1  UNL1       -0.0487
     11  C7        -6.2490   -0.5960    2.7910 C.ar    1  UNL1       -0.0610
     12  C8        -5.4480   -1.4580    2.0720 C.ar    1  UNL1       -0.0611
     13  C9        -4.9690   -1.1610    0.8230 C.ar    1  UNL1       -0.0521
     14  C10       -5.3160    0.0630    0.2760 C.ar    1  UNL1        0.0108
     15  N3        -1.6900   -1.3600   -1.9370 N.am    1  UNL1       -0.3064
     16  C11       -0.3020   -1.4410   -1.5140 C.3     1  UNL1        0.0883
     17  C12        0.3770   -0.1430   -1.5870 C.2     1  UNL1        0.2328
     18  O3        -0.2940    0.8470   -1.9920 O.2     1  UNL1       -0.2739
     19  N4         1.7410   -0.0310   -1.2120 N.am    1  UNL1       -0.2972
     20  C13        2.3610    1.2590   -1.3030 C.3     1  UNL1        0.0305
     21  C14        3.8720    1.2360   -1.2860 C.3     1  UNL1        0.0280
     22  N5         4.4100    0.0540   -0.6230 N.pl3   1  UNL1       -0.3269
     23  C15        5.3640    0.1590    0.3980 C.ar    1  UNL1        0.0299
     24  C16        6.1470    1.2610    0.6360 C.ar    1  UNL1       -0.0379
     25  C17        7.0770    1.3210    1.6810 C.ar    1  UNL1       -0.0247
     26  C18        7.2490    0.2560    2.5300 C.ar    1  UNL1        0.1235
     27  F1         8.1480    0.3160    3.5380 F       1  UNL1       -0.2055
     28  C19        6.4720   -0.8540    2.3040 C.ar    1  UNL1       -0.0247
     29  C20        5.5550   -0.9160    1.2760 C.ar    1  UNL1       -0.0379
     30  C21        3.8830   -1.2080   -1.1270 C.3     1  UNL1        0.0280
     31  C22        2.4210   -1.2260   -0.7610 C.3     1  UNL1        0.0305
     32 H          -4.4272   -1.4704   -1.6855 H       1  UNL1        0.0423
     33 H          -4.0037   -0.1205   -2.7556 H       1  UNL1        0.0423
     34 H          -6.2034    3.3562   -1.2891 H       1  UNL1        0.1921
     35 H          -7.1696    1.2836    2.7187 H       1  UNL1        0.0625
     36 H          -6.5961   -0.8445    3.7306 H       1  UNL1        0.0618
     37 H          -5.1984   -2.3665    2.4930 H       1  UNL1        0.0618
     38 H          -4.3708   -1.8259    0.3082 H       1  UNL1        0.0624
     39 H          -1.9922   -1.9000   -2.7027 H       1  UNL1        0.1492
     40 H           0.2111   -2.1342   -2.1473 H       1  UNL1        0.0558
     41 H          -0.2883   -1.7615   -0.4932 H       1  UNL1        0.0558
     42 H           2.0273    1.8484   -0.4746 H       1  UNL1        0.0480
     43 H           2.0756    1.6653   -2.2508 H       1  UNL1        0.0480
     44 H           4.2217    2.1062   -0.7709 H       1  UNL1        0.0479
     45 H           4.2061    1.2163   -2.3023 H       1  UNL1        0.0479
     46 H           6.0458    2.0811    0.0177 H       1  UNL1        0.0637
     47 H           7.6397    2.1757    1.8145 H       1  UNL1        0.0647
     48 H           6.5783   -1.6707    2.9258 H       1  UNL1        0.0647
     49 H           4.9962   -1.7745    1.1504 H       1  UNL1        0.0637
     50 H           4.3905   -2.0315   -0.6697 H       1  UNL1        0.0479
     51 H           4.0225   -1.2957   -2.1842 H       1  UNL1        0.0479
     52 H           1.9606   -2.0788   -1.2144 H       1  UNL1        0.0480
     53 H           2.3449   -1.2704    0.3054 H       1  UNL1        0.0480
@<TRIPOS>BOND
     1     1     2    2
     2     2     3    1
     3     2    15   am
     4     3     4    1
     5     4     5   ar
     6     4    14   ar
     7     5     6   ar
     8     6     7   ar
     9     7     8    2
    10     7     9   ar
    11     9    10   ar
    12     9    14   ar
    13    10    11   ar
    14    11    12   ar
    15    12    13   ar
    16    13    14   ar
    17    15    16    1
    18    16    17    1
    19    17    18    2
    20    17    19   am
    21    19    20    1
    22    19    31    1
    23    20    21    1
    24    21    22    1
    25    22    23    1
    26    22    30    1
    27    23    24   ar
    28    23    29   ar
    29    24    25   ar
    30    25    26   ar
    31    26    27    1
    32    26    28   ar
    33    28    29   ar
    34    30    31    1
    35     3    32    1
    36     3    33    1
    37     6    34    1
    38    10    35    1
    39    11    36    1
    40    12    37    1
    41    13    38    1
    42    15    39    1
    43    16    40    1
    44    16    41    1
    45    20    42    1
    46    20    43    1
    47    21    44    1
    48    21    45    1
    49    24    46    1
    50    25    47    1
    51    28    48    1
    52    29    49    1
    53    30    50    1
    54    30    51    1
    55    31    52    1
    56    31    53    1
@<TRIPOS>MOLECULE
../data/bude_mols_rdkit_confs2/molecule_7.pdb
 53 56 0 0 0
SMALL
GASTEIGER

@<TRIPOS>ATOM
      1  O1        -1.8210    0.2750   -0.8370 O.2     1  UNL1       -0.2754
      2  C1        -2.3750   -0.7020   -0.2950 C.2     1  UNL1        0.2193
      3  C2        -3.7980   -0.9940   -0.6090 C.3     1  UNL1        0.0685
      4  C3        -4.5950    0.2340   -0.3850 C.ar    1  UNL1        0.0780
      5  N1        -4.0510    1.4700   -0.4590 N.ar    1  UNL1       -0.1748
      6  N2        -4.7240    2.5760   -0.2430 N.ar    1  UNL1       -0.2425
      7  C4        -6.0270    2.5510    0.0720 C.ar    1  UNL1        0.2725
      8  O2        -6.6400    3.6340    0.2730 O.2     1  UNL1       -0.2658
      9  C5        -6.6550    1.3210    0.1650 C.ar    1  UNL1        0.0496
     10  C6        -7.9850    1.3340    0.4800 C.ar    1  UNL1       -0.0487
     11  C7        -8.6410    0.1320    0.5730 C.ar    1  UNL1       -0.0610
     12  C8        -7.9600   -1.0430    0.3510 C.ar    1  UNL1       -0.0611
     13  C9        -6.6060   -1.0230    0.0320 C.ar    1  UNL1       -0.0521
     14  C10       -5.9470    0.1640   -0.0610 C.ar    1  UNL1        0.0108
     15  N3        -1.6530   -1.5170    0.6050 N.am    1  UNL1       -0.3064
     16  C11       -0.2750   -1.3140    0.9540 C.3     1  UNL1        0.0883
     17  C12        0.5960   -1.4350   -0.2580 C.2     1  UNL1        0.2328
     18  O3        -0.0000   -1.6970   -1.3490 O.2     1  UNL1       -0.2739
     19  N4         1.9990   -1.2690   -0.1930 N.am    1  UNL1       -0.2972
     20  C13        2.6390   -0.9400    1.0470 C.3     1  UNL1        0.0305
     21  C14        3.5080    0.2960    0.7770 C.3     1  UNL1        0.0280
     22  N5         4.5100   -0.1520   -0.1660 N.pl3   1  UNL1       -0.3269
     23  C15        5.7700    0.5050   -0.2000 C.ar    1  UNL1        0.0299
     24  C16        6.8220    0.0080   -0.9750 C.ar    1  UNL1       -0.0379
     25  C17        8.0480    0.6370   -1.0250 C.ar    1  UNL1       -0.0247
     26  C18        8.2820    1.7910   -0.3040 C.ar    1  UNL1        0.1235
     27  F1         9.4630    2.4270   -0.3330 F       1  UNL1       -0.2055
     28  C19        7.2740    2.3050    0.4640 C.ar    1  UNL1       -0.0247
     29  C20        6.0550    1.6550    0.4960 C.ar    1  UNL1       -0.0379
     30  C21        4.2810   -1.2450   -1.0880 C.3     1  UNL1        0.0280
     31  C22        2.8100   -1.4490   -1.3670 C.3     1  UNL1        0.0305
     32 H          -4.1544   -1.7759    0.0286 H       1  UNL1        0.0423
     33 H          -3.8897   -1.3075   -1.6279 H       1  UNL1        0.0423
     34 H          -4.2621    3.4425   -0.3138 H       1  UNL1        0.1921
     35 H          -8.4824    2.2234    0.6434 H       1  UNL1        0.0625
     36 H          -9.6453    0.1094    0.8095 H       1  UNL1        0.0618
     37 H          -8.4569   -1.9448    0.4216 H       1  UNL1        0.0618
     38 H          -6.1016   -1.9079   -0.1340 H       1  UNL1        0.0624
     39 H          -2.1258   -2.2741    1.0203 H       1  UNL1        0.1492
     40 H           0.0182   -2.0499    1.6733 H       1  UNL1        0.0558
     41 H          -0.1628   -0.3322    1.3643 H       1  UNL1        0.0558
     42 H           3.2488   -1.7555    1.3756 H       1  UNL1        0.0480
     43 H           1.9184   -0.7453    1.8136 H       1  UNL1        0.0480
     44 H           3.9677    0.6377    1.6808 H       1  UNL1        0.0479
     45 H           2.9351    1.1159    0.3968 H       1  UNL1        0.0479
     46 H           6.6770   -0.8533   -1.5248 H       1  UNL1        0.0637
     47 H           8.8006    0.2400   -1.6090 H       1  UNL1        0.0647
     48 H           7.4217    3.1667    1.0123 H       1  UNL1        0.0647
     49 H           5.3085    2.0605    1.0820 H       1  UNL1        0.0637
     50 H           4.6806   -2.1432   -0.6656 H       1  UNL1        0.0479
     51 H           4.7634   -1.0052   -2.0125 H       1  UNL1        0.0479
     52 H           2.5002   -0.7441   -2.1100 H       1  UNL1        0.0480
     53 H           2.6784   -2.4563   -1.7030 H       1  UNL1        0.0480
@<TRIPOS>BOND
     1     1     2    2
     2     2     3    1
     3     2    15   am
     4     3     4    1
     5     4     5   ar
     6     4    14   ar
     7     5     6   ar
     8     6     7   ar
     9     7     8    2
    10     7     9   ar
    11     9    10   ar
    12     9    14   ar
    13    10    11   ar
    14    11    12   ar
    15    12    13   ar
    16    13    14   ar
    17    15    16    1
    18    16    17    1
    19    17    18    2
    20    17    19   am
    21    19    20    1
    22    19    31    1
    23    20    21    1
    24    21    22    1
    25    22    23    1
    26    22    30    1
    27    23    24   ar
    28    23    29   ar
    29    24    25   ar
    30    25    26   ar
    31    26    27    1
    32    26    28   ar
    33    28    29   ar
    34    30    31    1
    35     3    32    1
    36     3    33    1
    37     6    34    1
    38    10    35    1
    39    11    36    1
    40    12    37    1
    41    13    38    1
    42    15    39    1
    43    16    40    1
    44    16    41    1
    45    20    42    1
    46    20    43    1
    47    21    44    1
    48    21    45    1
    49    24    46    1
    50    25    47    1
    51    28    48    1
    52    29    49    1
    53    30    50    1
    54    30    51    1
    55    31    52    1
    56    31    53    1
@<TRIPOS>MOLECULE
../data/bude_mols_rdkit_confs2/molecule_7.pdb
 53 56 0 0 0
SMALL
GASTEIGER

@<TRIPOS>ATOM
      1  O1        -2.9880    0.2740    1.3760 O.2     1  UNL1       -0.2754
      2  C1        -2.9600    0.9840    0.3500 C.2     1  UNL1        0.2193
      3  C2        -4.1690    1.5030   -0.3300 C.3     1  UNL1        0.0685
      4  C3        -5.4260    1.0980    0.3210 C.ar    1  UNL1        0.0780
      5  N1        -6.1630    1.9270    1.0810 N.ar    1  UNL1       -0.1748
      6  N2        -7.2960    1.5800    1.6740 N.ar    1  UNL1       -0.2425
      7  C4        -7.8020    0.3420    1.5550 C.ar    1  UNL1        0.2725
      8  O2        -8.8740    0.0510    2.1300 O.2     1  UNL1       -0.2658
      9  C5        -7.0970   -0.5610    0.7890 C.ar    1  UNL1        0.0496
     10  C6        -7.6180   -1.8260    0.6700 C.ar    1  UNL1       -0.0487
     11  C7        -6.9080   -2.7380   -0.1020 C.ar    1  UNL1       -0.0610
     12  C8        -5.7260   -2.3870   -0.7250 C.ar    1  UNL1       -0.0611
     13  C9        -5.2130   -1.1130   -0.5970 C.ar    1  UNL1       -0.0521
     14  C10       -5.9000   -0.1890    0.1640 C.ar    1  UNL1        0.0108
     15  N3        -1.7000    1.3180   -0.2020 N.am    1  UNL1       -0.3064
     16  C11       -0.4460    0.8790    0.3620 C.3     1  UNL1        0.0883
     17  C12        0.7040    1.3840   -0.4340 C.2     1  UNL1        0.2328
     18  O3         0.4420    2.0890   -1.4420 O.2     1  UNL1       -0.2739
     19  N4         2.0470    1.1010   -0.0960 N.am    1  UNL1       -0.2972
     20  C13        2.4150    0.2970    1.0520 C.3     1  UNL1        0.0305
     21  C14        3.9260    0.3770    1.2960 C.3     1  UNL1        0.0280
     22  N5         4.6580    0.1210    0.0830 N.pl3   1  UNL1       -0.3269
     23  C15        5.9420   -0.4960    0.1040 C.ar    1  UNL1        0.0299
     24  C16        6.9360   -0.1440   -0.7900 C.ar    1  UNL1       -0.0379
     25  C17        8.1540   -0.7800   -0.7500 C.ar    1  UNL1       -0.0247
     26  C18        8.4290   -1.7720    0.1640 C.ar    1  UNL1        0.1235
     27  F1         9.6590   -2.3740    0.1620 F       1  UNL1       -0.2055
     28  C19        7.4400   -2.1190    1.0500 C.ar    1  UNL1       -0.0247
     29  C20        6.2140   -1.4880    1.0180 C.ar    1  UNL1       -0.0379
     30  C21        4.0640    0.4790   -1.2160 C.3     1  UNL1        0.0280
     31  C22        3.1090    1.6290   -0.9150 C.3     1  UNL1        0.0305
     32 H          -4.1752    1.1382   -1.3359 H       1  UNL1        0.0423
     33 H          -4.1212    2.5711   -0.2872 H       1  UNL1        0.0423
     34 H          -7.7785    2.2461    2.2150 H       1  UNL1        0.1921
     35 H          -8.5010   -2.0889    1.1350 H       1  UNL1        0.0625
     36 H          -7.2715   -3.6976   -0.2121 H       1  UNL1        0.0618
     37 H          -5.2212   -3.0857   -1.2925 H       1  UNL1        0.0618
     38 H          -4.3292   -0.8547   -1.0630 H       1  UNL1        0.0624
     39 H          -1.6779    1.8780   -1.0114 H       1  UNL1        0.1492
     40 H          -0.4221   -0.1907    0.3710 H       1  UNL1        0.0558
     41 H          -0.3668    1.2649    1.3568 H       1  UNL1        0.0558
     42 H           2.1400   -0.7213    0.8723 H       1  UNL1        0.0480
     43 H           1.9032    0.6684    1.9151 H       1  UNL1        0.0480
     44 H           4.2009   -0.3505    2.0309 H       1  UNL1        0.0479
     45 H           4.1649    1.3626    1.6371 H       1  UNL1        0.0479
     46 H           6.7635    0.5966   -1.4877 H       1  UNL1        0.0637
     47 H           8.8843   -0.5055   -1.4255 H       1  UNL1        0.0647
     48 H           7.6154   -2.8595    1.7471 H       1  UNL1        0.0647
     49 H           5.4852   -1.7657    1.6939 H       1  UNL1        0.0637
     50 H           3.5316   -0.3531   -1.6273 H       1  UNL1        0.0479
     51 H           4.8081    0.7543   -1.9339 H       1  UNL1        0.0479
     52 H           3.6249    2.4055   -0.3898 H       1  UNL1        0.0480
     53 H           2.7184    2.0440   -1.8206 H       1  UNL1        0.0480
@<TRIPOS>BOND
     1     1     2    2
     2     2     3    1
     3     2    15   am
     4     3     4    1
     5     4     5   ar
     6     4    14   ar
     7     5     6   ar
     8     6     7   ar
     9     7     8    2
    10     7     9   ar
    11     9    10   ar
    12     9    14   ar
    13    10    11   ar
    14    11    12   ar
    15    12    13   ar
    16    13    14   ar
    17    15    16    1
    18    16    17    1
    19    17    18    2
    20    17    19   am
    21    19    20    1
    22    19    31    1
    23    20    21    1
    24    21    22    1
    25    22    23    1
    26    22    30    1
    27    23    24   ar
    28    23    29   ar
    29    24    25   ar
    30    25    26   ar
    31    26    27    1
    32    26    28   ar
    33    28    29   ar
    34    30    31    1
    35     3    32    1
    36     3    33    1
    37     6    34    1
    38    10    35    1
    39    11    36    1
    40    12    37    1
    41    13    38    1
    42    15    39    1
    43    16    40    1
    44    16    41    1
    45    20    42    1
    46    20    43    1
    47    21    44    1
    48    21    45    1
    49    24    46    1
    50    25    47    1
    51    28    48    1
    52    29    49    1
    53    30    50    1
    54    30    51    1
    55    31    52    1
    56    31    53    1
@<TRIPOS>MOLECULE
../data/bude_mols_rdkit_confs2/molecule_7.pdb
 53 56 0 0 0
SMALL
GASTEIGER

@<TRIPOS>ATOM
      1  O1         2.7680   -0.0720    0.9050 O.2     1  UNL1       -0.2754
      2  C1         2.8120   -1.1530    0.2730 C.2     1  UNL1        0.2193
      3  C2         4.1050   -1.8450    0.1270 C.3     1  UNL1        0.0685
      4  C3         5.2140   -1.0970    0.7920 C.ar    1  UNL1        0.0780
      5  N1         5.7140   -1.5040    1.9730 N.ar    1  UNL1       -0.1748
      6  N2         6.7090   -0.8340    2.5730 N.ar    1  UNL1       -0.2425
      7  C4         7.2680    0.2580    2.0640 C.ar    1  UNL1        0.2725
      8  O2         8.1990    0.8960    2.6130 O.2     1  UNL1       -0.2658
      9  C5         6.7990    0.7300    0.8490 C.ar    1  UNL1        0.0496
     10  C6         7.3510    1.8610    0.2840 C.ar    1  UNL1       -0.0487
     11  C7         6.8760    2.3230   -0.9270 C.ar    1  UNL1       -0.0610
     12  C8         5.8450    1.6150   -1.5320 C.ar    1  UNL1       -0.0611
     13  C9         5.2900    0.4890   -0.9780 C.ar    1  UNL1       -0.0521
     14  C10        5.7690    0.0330    0.2320 C.ar    1  UNL1        0.0108
     15  N3         1.6010   -1.6450   -0.2680 N.am    1  UNL1       -0.3064
     16  C11        0.3770   -0.9010   -0.0760 C.3     1  UNL1        0.0883
     17  C12       -0.7840   -1.5670   -0.7110 C.2     1  UNL1        0.2328
     18  O3        -0.6270   -2.6520   -1.3260 O.2     1  UNL1       -0.2739
     19  N4        -2.0970   -1.0310   -0.6600 N.am    1  UNL1       -0.2972
     20  C13       -3.2120   -1.6670   -1.2710 C.3     1  UNL1        0.0305
     21  C14       -4.5480   -1.4340   -0.6440 C.3     1  UNL1        0.0280
     22  N5        -4.5770   -0.3010    0.2530 N.pl3   1  UNL1       -0.3269
     23  C15       -5.6810    0.5810    0.3800 C.ar    1  UNL1        0.0299
     24  C16       -6.9260    0.2610   -0.1620 C.ar    1  UNL1       -0.0379
     25  C17       -8.0150    1.0970   -0.0680 C.ar    1  UNL1       -0.0247
     26  C18       -7.8990    2.3050    0.5820 C.ar    1  UNL1        0.1235
     27  F1        -8.9250    3.1720    0.7110 F       1  UNL1       -0.2055
     28  C19       -6.6900    2.6440    1.1230 C.ar    1  UNL1       -0.0247
     29  C20       -5.6020    1.7960    1.0220 C.ar    1  UNL1       -0.0379
     30  C21       -3.4050   -0.0800    1.0650 C.3     1  UNL1        0.0280
     31  C22       -2.2940    0.2190    0.0500 C.3     1  UNL1        0.0305
     32 H           4.3294   -1.9430   -0.9146 H       1  UNL1        0.0423
     33 H           4.0234   -2.8036    0.5953 H       1  UNL1        0.0423
     34 H           7.0426   -1.1694    3.4364 H       1  UNL1        0.1921
     35 H           8.1160    2.3597    0.7647 H       1  UNL1        0.0625
     36 H           7.2737    3.1667   -1.3685 H       1  UNL1        0.0618
     37 H           5.4808    1.9505   -2.4374 H       1  UNL1        0.0618
     38 H           4.5254   -0.0092   -1.4598 H       1  UNL1        0.0624
     39 H           1.5921   -2.4902   -0.7729 H       1  UNL1        0.1492
     40 H           0.4937    0.0723   -0.5048 H       1  UNL1        0.0558
     41 H           0.1886   -0.8412    0.9756 H       1  UNL1        0.0558
     42 H          -3.0290   -2.7212   -1.2605 H       1  UNL1        0.0480
     43 H          -3.2814   -1.2333   -2.2467 H       1  UNL1        0.0480
     44 H          -4.8198   -2.3094   -0.0920 H       1  UNL1        0.0479
     45 H          -5.2343   -1.2235   -1.4374 H       1  UNL1        0.0479
     46 H          -7.0348   -0.6398   -0.6537 H       1  UNL1        0.0637
     47 H          -8.9174    0.8188   -0.4842 H       1  UNL1        0.0647
     48 H          -6.5877    3.5459    1.6140 H       1  UNL1        0.0647
     49 H          -4.7035    2.0830    1.4408 H       1  UNL1        0.0637
     50 H          -3.1705   -0.9526    1.6381 H       1  UNL1        0.0479
     51 H          -3.5393    0.7130    1.7708 H       1  UNL1        0.0479
     52 H          -2.5974    0.9922   -0.6245 H       1  UNL1        0.0480
     53 H          -1.3969    0.5624    0.5214 H       1  UNL1        0.0480
@<TRIPOS>BOND
     1     1     2    2
     2     2     3    1
     3     2    15   am
     4     3     4    1
     5     4     5   ar
     6     4    14   ar
     7     5     6   ar
     8     6     7   ar
     9     7     8    2
    10     7     9   ar
    11     9    10   ar
    12     9    14   ar
    13    10    11   ar
    14    11    12   ar
    15    12    13   ar
    16    13    14   ar
    17    15    16    1
    18    16    17    1
    19    17    18    2
    20    17    19   am
    21    19    20    1
    22    19    31    1
    23    20    21    1
    24    21    22    1
    25    22    23    1
    26    22    30    1
    27    23    24   ar
    28    23    29   ar
    29    24    25   ar
    30    25    26   ar
    31    26    27    1
    32    26    28   ar
    33    28    29   ar
    34    30    31    1
    35     3    32    1
    36     3    33    1
    37     6    34    1
    38    10    35    1
    39    11    36    1
    40    12    37    1
    41    13    38    1
    42    15    39    1
    43    16    40    1
    44    16    41    1
    45    20    42    1
    46    20    43    1
    47    21    44    1
    48    21    45    1
    49    24    46    1
    50    25    47    1
    51    28    48    1
    52    29    49    1
    53    30    50    1
    54    30    51    1
    55    31    52    1
    56    31    53    1
@<TRIPOS>MOLECULE
../data/bude_mols_rdkit_confs2/molecule_7.pdb
 53 56 0 0 0
SMALL
GASTEIGER

@<TRIPOS>ATOM
      1  O1         2.7250   -0.0270    0.8440 O.2     1  UNL1       -0.2754
      2  C1         2.6650    0.7360   -0.1400 C.2     1  UNL1        0.2193
      3  C2         3.8030    1.6310   -0.5450 C.3     1  UNL1        0.0685
      4  C3         4.9130    1.4420    0.3870 C.ar    1  UNL1        0.0780
      5  N1         5.1540    2.3700    1.3250 N.ar    1  UNL1       -0.1748
      6  N2         6.1250    2.2990    2.2100 N.ar    1  UNL1       -0.2425
      7  C4         6.9560    1.2470    2.2140 C.ar    1  UNL1        0.2725
      8  O2         7.8940    1.1700    3.0630 O.2     1  UNL1       -0.2658
      9  C5         6.7610    0.2590    1.2740 C.ar    1  UNL1        0.0496
     10  C6         7.6230   -0.8180    1.2890 C.ar    1  UNL1       -0.0487
     11  C7         7.4490   -1.8300    0.3500 C.ar    1  UNL1       -0.0610
     12  C8         6.4200   -1.7210   -0.5610 C.ar    1  UNL1       -0.0611
     13  C9         5.5630   -0.6460   -0.5730 C.ar    1  UNL1       -0.0521
     14  C10        5.7360    0.3400    0.3440 C.ar    1  UNL1        0.0108
     15  N3         1.4580    0.7510   -0.9060 N.am    1  UNL1       -0.3064
     16  C11        0.3220   -0.0820   -0.5770 C.3     1  UNL1        0.0883
     17  C12       -0.7670    0.1610   -1.5510 C.2     1  UNL1        0.2328
     18  O3        -0.5800    1.0040   -2.4790 O.2     1  UNL1       -0.2739
     19  N4        -1.9850   -0.5540   -1.4210 N.am    1  UNL1       -0.2972
     20  C13       -3.0570   -0.3240   -2.3610 C.3     1  UNL1        0.0305
     21  C14       -4.1570    0.3450   -1.5370 C.3     1  UNL1        0.0280
     22  N5        -4.4520   -0.4650   -0.3710 N.pl3   1  UNL1       -0.3269
     23  C15       -5.6520   -0.2030    0.3370 C.ar    1  UNL1        0.0299
     24  C16       -6.4120    0.8860   -0.0080 C.ar    1  UNL1       -0.0379
     25  C17       -7.6080    1.2100    0.6340 C.ar    1  UNL1       -0.0247
     26  C18       -8.0660    0.4190    1.6610 C.ar    1  UNL1        0.1235
     27  F1        -9.2340    0.7170    2.3040 F       1  UNL1       -0.2055
     28  C19       -7.3070   -0.6760    2.0120 C.ar    1  UNL1       -0.0247
     29  C20       -6.1210   -0.9960    1.3740 C.ar    1  UNL1       -0.0379
     30  C21       -3.6000   -1.5120    0.1080 C.3     1  UNL1        0.0280
     31  C22       -2.2000   -1.5150   -0.3760 C.3     1  UNL1        0.0305
     32 H           3.4831    2.6517   -0.5194 H       1  UNL1        0.0423
     33 H           4.1192    1.3865   -1.5376 H       1  UNL1        0.0423
     34 H           6.2415    3.0197    2.8705 H       1  UNL1        0.1921
     35 H           8.3835   -0.8721    1.9845 H       1  UNL1        0.0625
     36 H           8.0788   -2.6474    0.3358 H       1  UNL1        0.0618
     37 H           6.2886   -2.4714   -1.2572 H       1  UNL1        0.0618
     38 H           4.8014   -0.5896   -1.2671 H       1  UNL1        0.0624
     39 H           1.3978    1.3496   -1.6853 H       1  UNL1        0.1492
     40 H          -0.0211    0.1557    0.4082 H       1  UNL1        0.0558
     41 H           0.6116   -1.1114   -0.6152 H       1  UNL1        0.0558
     42 H          -3.4032   -1.2490   -2.7725 H       1  UNL1        0.0480
     43 H          -2.7476    0.2787   -3.1892 H       1  UNL1        0.0480
     44 H          -5.0392    0.4439   -2.1344 H       1  UNL1        0.0479
     45 H          -3.8268    1.3131   -1.2229 H       1  UNL1        0.0479
     46 H          -6.0847    1.4924   -0.7763 H       1  UNL1        0.0637
     47 H          -8.1463    2.0397    0.3392 H       1  UNL1        0.0647
     48 H          -7.6356   -1.2813    2.7806 H       1  UNL1        0.0647
     49 H          -5.5846   -1.8263    1.6705 H       1  UNL1        0.0637
     50 H          -4.0421   -2.4437   -0.1774 H       1  UNL1        0.0479
     51 H          -3.5285   -1.3507    1.1634 H       1  UNL1        0.0479
     52 H          -1.5517   -1.2839    0.4433 H       1  UNL1        0.0480
     53 H          -1.9926   -2.4859   -0.7750 H       1  UNL1        0.0480
@<TRIPOS>BOND
     1     1     2    2
     2     2     3    1
     3     2    15   am
     4     3     4    1
     5     4     5   ar
     6     4    14   ar
     7     5     6   ar
     8     6     7   ar
     9     7     8    2
    10     7     9   ar
    11     9    10   ar
    12     9    14   ar
    13    10    11   ar
    14    11    12   ar
    15    12    13   ar
    16    13    14   ar
    17    15    16    1
    18    16    17    1
    19    17    18    2
    20    17    19   am
    21    19    20    1
    22    19    31    1
    23    20    21    1
    24    21    22    1
    25    22    23    1
    26    22    30    1
    27    23    24   ar
    28    23    29   ar
    29    24    25   ar
    30    25    26   ar
    31    26    27    1
    32    26    28   ar
    33    28    29   ar
    34    30    31    1
    35     3    32    1
    36     3    33    1
    37     6    34    1
    38    10    35    1
    39    11    36    1
    40    12    37    1
    41    13    38    1
    42    15    39    1
    43    16    40    1
    44    16    41    1
    45    20    42    1
    46    20    43    1
    47    21    44    1
    48    21    45    1
    49    24    46    1
    50    25    47    1
    51    28    48    1
    52    29    49    1
    53    30    50    1
    54    30    51    1
    55    31    52    1
    56    31    53    1
@<TRIPOS>MOLECULE
../data/bude_mols_rdkit_confs2/molecule_7.pdb
 53 56 0 0 0
SMALL
GASTEIGER

@<TRIPOS>ATOM
      1  O1         2.5530   -0.3150    0.2600 O.2     1  UNL1       -0.2754
      2  C1         2.8430   -1.2810   -0.4830 C.2     1  UNL1        0.2193
      3  C2         4.1940   -1.8790   -0.3760 C.3     1  UNL1        0.0685
      4  C3         4.9580   -1.1440    0.6600 C.ar    1  UNL1        0.0780
      5  N1         5.1880   -1.6400    1.8960 N.ar    1  UNL1       -0.1748
      6  N2         5.8690   -0.9830    2.8110 N.ar    1  UNL1       -0.2425
      7  C4         6.3870    0.2340    2.5860 C.ar    1  UNL1        0.2725
      8  O2         7.0230    0.7860    3.5190 O.2     1  UNL1       -0.2658
      9  C5         6.1890    0.7970    1.3460 C.ar    1  UNL1        0.0496
     10  C6         6.7080    2.0380    1.0910 C.ar    1  UNL1       -0.0487
     11  C7         6.5040    2.5990   -0.1580 C.ar    1  UNL1       -0.0610
     12  C8         5.7960    1.9400   -1.1430 C.ar    1  UNL1       -0.0611
     13  C9         5.2840    0.6900   -0.8570 C.ar    1  UNL1       -0.0521
     14  C10        5.4670    0.1030    0.3730 C.ar    1  UNL1        0.0108
     15  N3         1.8390   -1.7280   -1.3790 N.am    1  UNL1       -0.3064
     16  C11        0.5250   -1.1320   -1.4680 C.3     1  UNL1        0.0883
     17  C12       -0.2260   -1.1990   -0.2090 C.2     1  UNL1        0.2328
     18  O3         0.2420   -1.7250    0.8360 O.2     1  UNL1       -0.2739
     19  N4        -1.5360   -0.6480   -0.1630 N.am    1  UNL1       -0.2972
     20  C13       -2.3390   -0.6870    1.0680 C.3     1  UNL1        0.0305
     21  C14       -3.8100   -0.8290    0.7250 C.3     1  UNL1        0.0280
     22  N5        -4.2370    0.2270   -0.1900 N.pl3   1  UNL1       -0.3269
     23  C15       -5.5840    0.4790   -0.4250 C.ar    1  UNL1        0.0299
     24  C16       -6.0080    1.5250   -1.2000 C.ar    1  UNL1       -0.0379
     25  C17       -7.3790    1.6910   -1.3800 C.ar    1  UNL1       -0.0247
     26  C18       -8.3030    0.8600   -0.8200 C.ar    1  UNL1        0.1235
     27  F1        -9.6310    1.0360   -1.0060 F       1  UNL1       -0.2055
     28  C19       -7.8730   -0.1980   -0.0350 C.ar    1  UNL1       -0.0247
     29  C20       -6.5270   -0.3700    0.1490 C.ar    1  UNL1       -0.0379
     30  C21       -3.1930    0.9800   -0.8290 C.3     1  UNL1        0.0280
     31  C22       -2.1610   -0.0230   -1.3100 C.3     1  UNL1        0.0305
     32 H           4.6974   -1.8021   -1.3170 H       1  UNL1        0.0423
     33 H           4.1155   -2.9117   -0.1072 H       1  UNL1        0.0423
     34 H           6.0031   -1.3999    3.6927 H       1  UNL1        0.1921
     35 H           7.2405    2.5449    1.8152 H       1  UNL1        0.0625
     36 H           6.8914    3.5344   -0.3580 H       1  UNL1        0.0618
     37 H           5.6530    2.3708   -2.0698 H       1  UNL1        0.0618
     38 H           4.7519    0.1848   -1.5828 H       1  UNL1        0.0624
     39 H           2.0481   -2.4851   -1.9725 H       1  UNL1        0.1492
     40 H          -0.0313   -1.6462   -2.2237 H       1  UNL1        0.0558
     41 H           0.6603   -0.0970   -1.7032 H       1  UNL1        0.0558
     42 H          -2.1893    0.2189    1.6173 H       1  UNL1        0.0480
     43 H          -2.0342   -1.5251    1.6592 H       1  UNL1        0.0480
     44 H          -4.3868   -0.7676    1.6242 H       1  UNL1        0.0479
     45 H          -3.9598   -1.7752    0.2483 H       1  UNL1        0.0479
     46 H          -5.3322    2.1708   -1.6375 H       1  UNL1        0.0637
     47 H          -7.7094    2.4765   -1.9621 H       1  UNL1        0.0647
     48 H          -8.5517   -0.8416    0.4010 H       1  UNL1        0.0647
     49 H          -6.2002   -1.1556    0.7330 H       1  UNL1        0.0637
     50 H          -2.7492    1.6596   -0.1317 H       1  UNL1        0.0479
     51 H          -3.5785    1.5555   -1.6445 H       1  UNL1        0.0479
     52 H          -2.6393   -0.7699   -1.9085 H       1  UNL1        0.0480
     53 H          -1.4189    0.4771   -1.8966 H       1  UNL1        0.0480
@<TRIPOS>BOND
     1     1     2    2
     2     2     3    1
     3     2    15   am
     4     3     4    1
     5     4     5   ar
     6     4    14   ar
     7     5     6   ar
     8     6     7   ar
     9     7     8    2
    10     7     9   ar
    11     9    10   ar
    12     9    14   ar
    13    10    11   ar
    14    11    12   ar
    15    12    13   ar
    16    13    14   ar
    17    15    16    1
    18    16    17    1
    19    17    18    2
    20    17    19   am
    21    19    20    1
    22    19    31    1
    23    20    21    1
    24    21    22    1
    25    22    23    1
    26    22    30    1
    27    23    24   ar
    28    23    29   ar
    29    24    25   ar
    30    25    26   ar
    31    26    27    1
    32    26    28   ar
    33    28    29   ar
    34    30    31    1
    35     3    32    1
    36     3    33    1
    37     6    34    1
    38    10    35    1
    39    11    36    1
    40    12    37    1
    41    13    38    1
    42    15    39    1
    43    16    40    1
    44    16    41    1
    45    20    42    1
    46    20    43    1
    47    21    44    1
    48    21    45    1
    49    24    46    1
    50    25    47    1
    51    28    48    1
    52    29    49    1
    53    30    50    1
    54    30    51    1
    55    31    52    1
    56    31    53    1
@<TRIPOS>MOLECULE
../data/bude_mols_rdkit_confs2/molecule_7.pdb
 53 56 0 0 0
SMALL
GASTEIGER

@<TRIPOS>ATOM
      1  O1        -2.2950   -0.5420   -1.1170 O.2     1  UNL1       -0.2754
      2  C1        -2.7100    0.5560   -1.5560 C.2     1  UNL1        0.2193
      3  C2        -4.1880    0.7690   -1.7480 C.3     1  UNL1        0.0685
      4  C3        -4.9590   -0.4150   -1.3630 C.ar    1  UNL1        0.0780
      5  N1        -5.5060   -1.2760   -2.2460 N.ar    1  UNL1       -0.1748
      6  N2        -6.1970   -2.3350   -1.8730 N.ar    1  UNL1       -0.2425
      7  C4        -6.4100   -2.6380   -0.5860 C.ar    1  UNL1        0.2725
      8  O2        -7.0760   -3.6600   -0.2280 O.2     1  UNL1       -0.2658
      9  C5        -5.8890   -1.8160    0.3990 C.ar    1  UNL1        0.0496
     10  C6        -6.0850   -2.0930    1.7270 C.ar    1  UNL1       -0.0487
     11  C7        -5.5580   -1.2610    2.6900 C.ar    1  UNL1       -0.0610
     12  C8        -4.8420   -0.1650    2.2530 C.ar    1  UNL1       -0.0611
     13  C9        -4.6370    0.1270    0.9300 C.ar    1  UNL1       -0.0521
     14  C10       -5.1650   -0.7060   -0.0310 C.ar    1  UNL1        0.0108
     15  N3        -1.7760    1.5750   -1.8620 N.am    1  UNL1       -0.3064
     16  C11       -0.3480    1.4440   -1.7050 C.3     1  UNL1        0.0883
     17  C12        0.0580    1.1630   -0.3280 C.2     1  UNL1        0.2328
     18  O3        -0.8220    1.0610    0.5470 O.2     1  UNL1       -0.2739
     19  N4         1.4240    1.0090    0.0010 N.am    1  UNL1       -0.2972
     20  C13        1.7970    0.7280    1.3510 C.3     1  UNL1        0.0305
     21  C14        2.9680   -0.2270    1.4870 C.3     1  UNL1        0.0280
     22  N5         3.8910   -0.0750    0.3690 N.pl3   1  UNL1       -0.3269
     23  C15        5.2740    0.0910    0.5190 C.ar    1  UNL1        0.0299
     24  C16        6.0730    0.6050   -0.4850 C.ar    1  UNL1       -0.0379
     25  C17        7.4370    0.7510   -0.3340 C.ar    1  UNL1       -0.0247
     26  C18        8.0240    0.3760    0.8470 C.ar    1  UNL1        0.1235
     27  F1         9.3850    0.5340    0.9620 F       1  UNL1       -0.2055
     28  C19        7.2840   -0.1440    1.8860 C.ar    1  UNL1       -0.0247
     29  C20        5.9260   -0.2760    1.7020 C.ar    1  UNL1       -0.0379
     30  C21        3.2850   -0.1210   -0.9440 C.3     1  UNL1        0.0280
     31  C22        2.4180    1.1420   -1.0260 C.3     1  UNL1        0.0305
     32 H          -4.3764    0.9857   -2.7788 H       1  UNL1        0.0423
     33 H          -4.4921    1.5832   -1.1239 H       1  UNL1        0.0423
     34 H          -6.5705   -2.9253   -2.5667 H       1  UNL1        0.1921
     35 H          -6.6277   -2.9254    2.0055 H       1  UNL1        0.0625
     36 H          -5.6928   -1.4492    3.6957 H       1  UNL1        0.0618
     37 H          -4.4393    0.4688    2.9609 H       1  UNL1        0.0618
     38 H          -4.0936    0.9609    0.6572 H       1  UNL1        0.0624
     39 H          -2.1242    2.4297   -2.2047 H       1  UNL1        0.1492
     40 H           0.1133    2.3581   -2.0155 H       1  UNL1        0.0558
     41 H          -0.0377    0.6130   -2.3034 H       1  UNL1        0.0558
     42 H           0.9536    0.2978    1.8495 H       1  UNL1        0.0480
     43 H           2.1056    1.6564    1.7842 H       1  UNL1        0.0480
     44 H           2.6011   -1.2320    1.5051 H       1  UNL1        0.0479
     45 H           3.4887   -0.0048    2.3949 H       1  UNL1        0.0479
     46 H           5.6357    0.8886   -1.3757 H       1  UNL1        0.0637
     47 H           8.0086    1.1380   -1.1012 H       1  UNL1        0.0647
     48 H           7.7322   -0.4250    2.7721 H       1  UNL1        0.0647
     49 H           5.3614   -0.6643    2.4737 H       1  UNL1        0.0637
     50 H           2.6819   -0.9986   -1.0493 H       1  UNL1        0.0479
     51 H           4.0172   -0.1570   -1.7234 H       1  UNL1        0.0479
     52 H           3.0144    2.0137   -0.8550 H       1  UNL1        0.0480
     53 H           1.9705    1.2473   -1.9922 H       1  UNL1        0.0480
@<TRIPOS>BOND
     1     1     2    2
     2     2     3    1
     3     2    15   am
     4     3     4    1
     5     4     5   ar
     6     4    14   ar
     7     5     6   ar
     8     6     7   ar
     9     7     8    2
    10     7     9   ar
    11     9    10   ar
    12     9    14   ar
    13    10    11   ar
    14    11    12   ar
    15    12    13   ar
    16    13    14   ar
    17    15    16    1
    18    16    17    1
    19    17    18    2
    20    17    19   am
    21    19    20    1
    22    19    31    1
    23    20    21    1
    24    21    22    1
    25    22    23    1
    26    22    30    1
    27    23    24   ar
    28    23    29   ar
    29    24    25   ar
    30    25    26   ar
    31    26    27    1
    32    26    28   ar
    33    28    29   ar
    34    30    31    1
    35     3    32    1
    36     3    33    1
    37     6    34    1
    38    10    35    1
    39    11    36    1
    40    12    37    1
    41    13    38    1
    42    15    39    1
    43    16    40    1
    44    16    41    1
    45    20    42    1
    46    20    43    1
    47    21    44    1
    48    21    45    1
    49    24    46    1
    50    25    47    1
    51    28    48    1
    52    29    49    1
    53    30    50    1
    54    30    51    1
    55    31    52    1
    56    31    53    1
@<TRIPOS>MOLECULE
../data/bude_mols_rdkit_confs2/molecule_7.pdb
 53 56 0 0 0
SMALL
GASTEIGER

@<TRIPOS>ATOM
      1  O1         2.4780    1.8220    2.1520 O.2     1  UNL1       -0.2754
      2  C1         2.8950    1.8740    0.9380 C.2     1  UNL1        0.2193
      3  C2         4.3070    2.2150    0.6860 C.3     1  UNL1        0.0685
      4  C3         5.2070    1.0700    1.0450 C.ar    1  UNL1        0.0780
      5  N1         5.7280    0.9520    2.2810 N.ar    1  UNL1       -0.1748
      6  N2         6.4630   -0.0730    2.6540 N.ar    1  UNL1       -0.2425
      7  C4         6.6960   -1.0440    1.7450 C.ar    1  UNL1        0.2725
      8  O2         7.4090   -2.0260    2.1330 O.2     1  UNL1       -0.2658
      9  C5         6.2140   -1.0170    0.4650 C.ar    1  UNL1        0.0496
     10  C6         6.5170   -2.0280   -0.4020 C.ar    1  UNL1       -0.0487
     11  C7         6.0210   -1.9410   -1.7100 C.ar    1  UNL1       -0.0610
     12  C8         5.2660   -0.8700   -2.0800 C.ar    1  UNL1       -0.0611
     13  C9         4.9720    0.1450   -1.1780 C.ar    1  UNL1       -0.0521
     14  C10        5.4370    0.0960    0.1160 C.ar    1  UNL1        0.0108
     15  N3         1.9800    1.5980   -0.0950 N.am    1  UNL1       -0.3064
     16  C11        0.6050    1.2840    0.3130 C.3     1  UNL1        0.0883
     17  C12       -0.1650    0.9080   -0.9190 C.2     1  UNL1        0.2328
     18  O3         0.3540    0.8450   -2.0480 O.2     1  UNL1       -0.2739
     19  N4        -1.5840    0.5980   -0.7850 N.am    1  UNL1       -0.2972
     20  C13       -2.1880    0.7640    0.4860 C.3     1  UNL1        0.0305
     21  C14       -3.3890   -0.0980    0.7010 C.3     1  UNL1        0.0280
     22  N5        -4.2420   -0.2250   -0.4640 N.pl3   1  UNL1       -0.3269
     23  C15       -5.5950   -0.6170   -0.2580 C.ar    1  UNL1        0.0299
     24  C16       -6.2410   -1.5580   -1.0580 C.ar    1  UNL1       -0.0379
     25  C17       -7.5540   -1.8910   -0.8300 C.ar    1  UNL1       -0.0247
     26  C18       -8.2800   -1.3160    0.1890 C.ar    1  UNL1        0.1235
     27  F1        -9.5720   -1.6110    0.4590 F       1  UNL1       -0.2055
     28  C19       -7.6720   -0.3680    1.0160 C.ar    1  UNL1       -0.0247
     29  C20       -6.3360   -0.0550    0.7530 C.ar    1  UNL1       -0.0379
     30  C21       -3.7860    0.0370   -1.7940 C.3     1  UNL1        0.0280
     31  C22       -2.3070    0.1220   -1.9280 C.3     1  UNL1        0.0305
     32 H           4.5722    3.0673    1.2761 H       1  UNL1        0.0423
     33 H           4.4260    2.4296   -0.3555 H       1  UNL1        0.0423
     34 H           6.8309   -0.1304    3.5654 H       1  UNL1        0.1921
     35 H           7.0930   -2.8306   -0.1034 H       1  UNL1        0.0625
     36 H           6.2277   -2.6877   -2.3917 H       1  UNL1        0.0618
     37 H           4.9065   -0.8113   -3.0456 H       1  UNL1        0.0618
     38 H           4.3973    0.9462   -1.4826 H       1  UNL1        0.0624
     39 H           2.2480    1.6146   -1.0422 H       1  UNL1        0.1492
     40 H           0.1580    2.1396    0.7745 H       1  UNL1        0.0558
     41 H           0.5991    0.4787    1.0175 H       1  UNL1        0.0558
     42 H          -2.4847    1.7870    0.5873 H       1  UNL1        0.0480
     43 H          -1.4617    0.4736    1.2161 H       1  UNL1        0.0480
     44 H          -3.9672    0.3235    1.4966 H       1  UNL1        0.0479
     45 H          -3.0280   -1.0794    0.9278 H       1  UNL1        0.0479
     46 H          -5.7269   -2.0097   -1.8305 H       1  UNL1        0.0637
     47 H          -8.0081   -2.5902   -1.4382 H       1  UNL1        0.0647
     48 H          -8.1879    0.0819    1.7883 H       1  UNL1        0.0647
     49 H          -5.8760    0.6437    1.3574 H       1  UNL1        0.0637
     50 H          -4.2057    0.9674   -2.1150 H       1  UNL1        0.0479
     51 H          -4.1012   -0.7904   -2.3948 H       1  UNL1        0.0479
     52 H          -1.9450   -0.8589   -2.1554 H       1  UNL1        0.0480
     53 H          -2.1350    0.8499   -2.6932 H       1  UNL1        0.0480
@<TRIPOS>BOND
     1     1     2    2
     2     2     3    1
     3     2    15   am
     4     3     4    1
     5     4     5   ar
     6     4    14   ar
     7     5     6   ar
     8     6     7   ar
     9     7     8    2
    10     7     9   ar
    11     9    10   ar
    12     9    14   ar
    13    10    11   ar
    14    11    12   ar
    15    12    13   ar
    16    13    14   ar
    17    15    16    1
    18    16    17    1
    19    17    18    2
    20    17    19   am
    21    19    20    1
    22    19    31    1
    23    20    21    1
    24    21    22    1
    25    22    23    1
    26    22    30    1
    27    23    24   ar
    28    23    29   ar
    29    24    25   ar
    30    25    26   ar
    31    26    27    1
    32    26    28   ar
    33    28    29   ar
    34    30    31    1
    35     3    32    1
    36     3    33    1
    37     6    34    1
    38    10    35    1
    39    11    36    1
    40    12    37    1
    41    13    38    1
    42    15    39    1
    43    16    40    1
    44    16    41    1
    45    20    42    1
    46    20    43    1
    47    21    44    1
    48    21    45    1
    49    24    46    1
    50    25    47    1
    51    28    48    1
    52    29    49    1
    53    30    50    1
    54    30    51    1
    55    31    52    1
    56    31    53    1
@<TRIPOS>MOLECULE
../data/bude_mols_rdkit_confs2/molecule_7.pdb
 53 56 0 0 0
SMALL
GASTEIGER

@<TRIPOS>ATOM
      1  O1        -2.4370   -0.0990    0.2110 O.2     1  UNL1       -0.2754
      2  C1        -2.8390   -0.0230    1.3950 C.2     1  UNL1        0.2193
      3  C2        -4.2120   -0.4870    1.7140 C.3     1  UNL1        0.0685
      4  C3        -4.8360   -0.9600    0.4530 C.ar    1  UNL1        0.0780
      5  N1        -4.9800   -2.2870    0.1880 N.ar    1  UNL1       -0.1748
      6  N2        -5.5330   -2.7260   -0.9280 N.ar    1  UNL1       -0.2425
      7  C4        -5.9910   -1.8930   -1.8760 C.ar    1  UNL1        0.2725
      8  O2        -6.5220   -2.3460   -2.9470 O.2     1  UNL1       -0.2658
      9  C5        -5.8840   -0.5380   -1.6880 C.ar    1  UNL1        0.0496
     10  C6        -6.3560    0.3200   -2.6670 C.ar    1  UNL1       -0.0487
     11  C7        -6.2410    1.6770   -2.4610 C.ar    1  UNL1       -0.0610
     12  C8        -5.6570    2.1290   -1.2830 C.ar    1  UNL1       -0.0611
     13  C9        -5.1870    1.2690   -0.3090 C.ar    1  UNL1       -0.0521
     14  C10       -5.3000   -0.0880   -0.5090 C.ar    1  UNL1        0.0108
     15  N3        -1.9620    0.5050    2.3840 N.am    1  UNL1       -0.3064
     16  C11       -0.6420    0.9240    1.9600 C.3     1  UNL1        0.0883
     17  C12        0.1020   -0.2290    1.3920 C.2     1  UNL1        0.2328
     18  O3        -0.4530   -1.3620    1.3500 O.2     1  UNL1       -0.2739
     19  N4         1.4340   -0.0360    0.9000 N.am    1  UNL1       -0.2972
     20  C13        2.0390    1.2660    0.9620 C.3     1  UNL1        0.0305
     21  C14        3.1540    1.2930   -0.0960 C.3     1  UNL1        0.0280
     22  N5         4.1120    0.2540    0.1390 N.pl3   1  UNL1       -0.3269
     23  C15        5.4680    0.4500   -0.2070 C.ar    1  UNL1        0.0299
     24  C16        5.8770    1.5730   -0.8880 C.ar    1  UNL1       -0.0379
     25  C17        7.2270    1.7540   -1.2190 C.ar    1  UNL1       -0.0247
     26  C18        8.1810    0.8310   -0.8810 C.ar    1  UNL1        0.1235
     27  F1         9.4710    1.0570   -1.2250 F       1  UNL1       -0.2055
     28  C19        7.7830   -0.2970   -0.1990 C.ar    1  UNL1       -0.0247
     29  C20        6.4420   -0.4700    0.1260 C.ar    1  UNL1       -0.0379
     30  C21        3.6380   -0.9790    0.7320 C.3     1  UNL1        0.0280
     31  C22        2.1650   -1.1540    0.3420 C.3     1  UNL1        0.0305
     32 H          -4.7833    0.3204    2.1222 H       1  UNL1        0.0423
     33 H          -4.1813   -1.2771    2.4349 H       1  UNL1        0.0423
     34 H          -5.6121   -3.6971   -1.0696 H       1  UNL1        0.1921
     35 H          -6.7839   -0.0486   -3.5307 H       1  UNL1        0.0625
     36 H          -6.5823    2.3464   -3.1685 H       1  UNL1        0.0618
     37 H          -5.5713    3.1460   -1.1302 H       1  UNL1        0.0618
     38 H          -4.7583    1.6381    0.5542 H       1  UNL1        0.0624
     39 H          -2.2431    0.5827    3.3243 H       1  UNL1        0.1492
     40 H          -0.1063    1.3109    2.8016 H       1  UNL1        0.0558
     41 H          -0.7391    1.6814    1.2105 H       1  UNL1        0.0558
     42 H           2.4513    1.4339    1.9350 H       1  UNL1        0.0480
     43 H           1.3163    2.0327    0.7755 H       1  UNL1        0.0480
     44 H           3.6495    2.2406   -0.0577 H       1  UNL1        0.0479
     45 H           2.7134    1.1382   -1.0587 H       1  UNL1        0.0479
     46 H           5.1839    2.2885   -1.1576 H       1  UNL1        0.0637
     47 H           7.5095    2.6046   -1.7306 H       1  UNL1        0.0647
     48 H           8.4774   -1.0115    0.0700 H       1  UNL1        0.0647
     49 H           6.1632   -1.3218    0.6376 H       1  UNL1        0.0637
     50 H           3.7286   -0.9286    1.7970 H       1  UNL1        0.0479
     51 H           4.2172   -1.8077    0.3819 H       1  UNL1        0.0479
     52 H           2.0669   -1.1600   -0.7235 H       1  UNL1        0.0480
     53 H           1.7824   -2.0804    0.7165 H       1  UNL1        0.0480
@<TRIPOS>BOND
     1     1     2    2
     2     2     3    1
     3     2    15   am
     4     3     4    1
     5     4     5   ar
     6     4    14   ar
     7     5     6   ar
     8     6     7   ar
     9     7     8    2
    10     7     9   ar
    11     9    10   ar
    12     9    14   ar
    13    10    11   ar
    14    11    12   ar
    15    12    13   ar
    16    13    14   ar
    17    15    16    1
    18    16    17    1
    19    17    18    2
    20    17    19   am
    21    19    20    1
    22    19    31    1
    23    20    21    1
    24    21    22    1
    25    22    23    1
    26    22    30    1
    27    23    24   ar
    28    23    29   ar
    29    24    25   ar
    30    25    26   ar
    31    26    27    1
    32    26    28   ar
    33    28    29   ar
    34    30    31    1
    35     3    32    1
    36     3    33    1
    37     6    34    1
    38    10    35    1
    39    11    36    1
    40    12    37    1
    41    13    38    1
    42    15    39    1
    43    16    40    1
    44    16    41    1
    45    20    42    1
    46    20    43    1
    47    21    44    1
    48    21    45    1
    49    24    46    1
    50    25    47    1
    51    28    48    1
    52    29    49    1
    53    30    50    1
    54    30    51    1
    55    31    52    1
    56    31    53    1
@<TRIPOS>MOLECULE
../data/bude_mols_rdkit_confs2/molecule_7.pdb
 53 56 0 0 0
SMALL
GASTEIGER

@<TRIPOS>ATOM
      1  O1        -1.6120   -2.0840    0.8520 O.2     1  UNL1       -0.2754
      2  C1        -2.3320   -1.0610    0.9580 C.2     1  UNL1        0.2193
      3  C2        -3.7880   -1.2230    0.9790 C.3     1  UNL1        0.0685
      4  C3        -4.5760   -0.2070    0.2990 C.ar    1  UNL1        0.0780
      5  N1        -4.0850    0.9290   -0.1810 N.ar    1  UNL1       -0.1748
      6  N2        -4.8270    1.8690   -0.7410 N.ar    1  UNL1       -0.2425
      7  C4        -6.1620    1.7240   -0.8610 C.ar    1  UNL1        0.2725
      8  O2        -6.8740    2.6200   -1.3910 O.2     1  UNL1       -0.2658
      9  C5        -6.7530    0.5770   -0.3910 C.ar    1  UNL1        0.0496
     10  C6        -8.1130    0.4210   -0.5240 C.ar    1  UNL1       -0.0487
     11  C7        -8.7450   -0.7420   -0.0710 C.ar    1  UNL1       -0.0610
     12  C8        -7.9080   -1.6910    0.5040 C.ar    1  UNL1       -0.0611
     13  C9        -6.5600   -1.5360    0.6380 C.ar    1  UNL1       -0.0521
     14  C10       -5.9450   -0.3860    0.1880 C.ar    1  UNL1        0.0108
     15  N3        -1.6140    0.1710    1.0510 N.am    1  UNL1       -0.3064
     16  C11       -0.1850    0.2250    1.0540 C.3     1  UNL1        0.0883
     17  C12        0.4830   -0.3940   -0.0880 C.2     1  UNL1        0.2328
     18  O3        -0.0810   -0.9550   -1.0680 O.2     1  UNL1       -0.2739
     19  N4         1.9430   -0.3680   -0.1010 N.am    1  UNL1       -0.2972
     20  C13        2.6680   -0.9870   -1.1740 C.3     1  UNL1        0.0305
     21  C14        3.9000   -0.2490   -1.5530 C.3     1  UNL1        0.0280
     22  N5         4.4970    0.4870   -0.4920 N.pl3   1  UNL1       -0.3269
     23  C15        5.8690    0.4670   -0.1630 C.ar    1  UNL1        0.0299
     24  C16        6.4580   -0.7710    0.0960 C.ar    1  UNL1       -0.0379
     25  C17        7.7810   -0.8100    0.3960 C.ar    1  UNL1       -0.0247
     26  C18        8.5430    0.3460    0.4480 C.ar    1  UNL1        0.1235
     27  F1         9.8510    0.2490    0.7400 F       1  UNL1       -0.2055
     28  C19        7.9860    1.5720    0.1980 C.ar    1  UNL1       -0.0247
     29  C20        6.6420    1.6110   -0.1070 C.ar    1  UNL1       -0.0379
     30  C21        3.6090    1.3010    0.3660 C.3     1  UNL1        0.0280
     31  C22        2.6390    0.2750    0.9880 C.3     1  UNL1        0.0305
     32 H          -4.0962   -1.2382    2.0035 H       1  UNL1        0.0423
     33 H          -3.9745   -2.1271    0.4380 H       1  UNL1        0.0423
     34 H          -4.3973    2.6889   -1.0761 H       1  UNL1        0.1921
     35 H          -8.6727    1.1691   -0.9622 H       1  UNL1        0.0625
     36 H          -9.7633   -0.8855   -0.1579 H       1  UNL1        0.0618
     37 H          -8.3324   -2.5656    0.8504 H       1  UNL1        0.0618
     38 H          -5.9978   -2.2815    1.0776 H       1  UNL1        0.0624
     39 H          -2.1211    1.0124    1.1153 H       1  UNL1        0.1492
     40 H           0.1590   -0.2665    1.9400 H       1  UNL1        0.0558
     41 H           0.0638    1.2645    1.0042 H       1  UNL1        0.0558
     42 H           2.0278   -1.0412   -2.0296 H       1  UNL1        0.0480
     43 H           2.9705   -1.9557   -0.8348 H       1  UNL1        0.0480
     44 H           3.6515    0.4361   -2.3364 H       1  UNL1        0.0479
     45 H           4.6158   -0.9857   -1.8527 H       1  UNL1        0.0479
     46 H           5.8997   -1.6382    0.0602 H       1  UNL1        0.0637
     47 H           8.2287   -1.7195    0.5894 H       1  UNL1        0.0647
     48 H           8.5513    2.4345    0.2365 H       1  UNL1        0.0647
     49 H           6.1994    2.5232   -0.2995 H       1  UNL1        0.0637
     50 H           3.0756    2.0227   -0.2167 H       1  UNL1        0.0479
     51 H           4.1487    1.8552    1.1053 H       1  UNL1        0.0479
     52 H           3.1857   -0.4507    1.5532 H       1  UNL1        0.0480
     53 H           1.9487    0.7565    1.6487 H       1  UNL1        0.0480
@<TRIPOS>BOND
     1     1     2    2
     2     2     3    1
     3     2    15   am
     4     3     4    1
     5     4     5   ar
     6     4    14   ar
     7     5     6   ar
     8     6     7   ar
     9     7     8    2
    10     7     9   ar
    11     9    10   ar
    12     9    14   ar
    13    10    11   ar
    14    11    12   ar
    15    12    13   ar
    16    13    14   ar
    17    15    16    1
    18    16    17    1
    19    17    18    2
    20    17    19   am
    21    19    20    1
    22    19    31    1
    23    20    21    1
    24    21    22    1
    25    22    23    1
    26    22    30    1
    27    23    24   ar
    28    23    29   ar
    29    24    25   ar
    30    25    26   ar
    31    26    27    1
    32    26    28   ar
    33    28    29   ar
    34    30    31    1
    35     3    32    1
    36     3    33    1
    37     6    34    1
    38    10    35    1
    39    11    36    1
    40    12    37    1
    41    13    38    1
    42    15    39    1
    43    16    40    1
    44    16    41    1
    45    20    42    1
    46    20    43    1
    47    21    44    1
    48    21    45    1
    49    24    46    1
    50    25    47    1
    51    28    48    1
    52    29    49    1
    53    30    50    1
    54    30    51    1
    55    31    52    1
    56    31    53    1
@<TRIPOS>MOLECULE
../data/bude_mols_rdkit_confs2/molecule_7.pdb
 53 56 0 0 0
SMALL
GASTEIGER

@<TRIPOS>ATOM
      1  O1        -2.6340   -1.3030    0.5660 O.2     1  UNL1       -0.2754
      2  C1        -2.6610   -0.1310    0.9750 C.2     1  UNL1        0.2193
      3  C2        -3.8480    0.4130    1.6720 C.3     1  UNL1        0.0685
      4  C3        -4.9980    0.5180    0.7300 C.ar    1  UNL1        0.0780
      5  N1        -5.1710    1.7310    0.1370 N.ar    1  UNL1       -0.1748
      6  N2        -6.1240    1.8850   -0.7760 N.ar    1  UNL1       -0.2425
      7  C4        -6.9300    0.8910   -1.1390 C.ar    1  UNL1        0.2725
      8  O2        -7.8370    1.0230   -2.0030 O.2     1  UNL1       -0.2658
      9  C5        -6.8030   -0.3670   -0.5660 C.ar    1  UNL1        0.0496
     10  C6        -7.6380   -1.4040   -0.9200 C.ar    1  UNL1       -0.0487
     11  C7        -7.4700   -2.6260   -0.3030 C.ar    1  UNL1       -0.0610
     12  C8        -6.4840   -2.7750    0.6400 C.ar    1  UNL1       -0.0611
     13  C9        -5.6370   -1.7410    1.0060 C.ar    1  UNL1       -0.0521
     14  C10       -5.8010   -0.5210    0.3900 C.ar    1  UNL1        0.0108
     15  N3        -1.5500    0.7410    0.7890 N.am    1  UNL1       -0.3064
     16  C11       -0.3690    0.2490    0.1040 C.3     1  UNL1        0.0883
     17  C12        0.6470    1.2940   -0.0510 C.2     1  UNL1        0.2328
     18  O3         0.4400    2.4730    0.4000 O.2     1  UNL1       -0.2739
     19  N4         1.8680    1.0380   -0.6940 N.am    1  UNL1       -0.2972
     20  C13        2.8470    2.0910   -0.8830 C.3     1  UNL1        0.0305
     21  C14        4.2410    1.7250   -0.5440 C.3     1  UNL1        0.0280
     22  N5         4.4680    0.3110   -0.4060 N.pl3   1  UNL1       -0.3269
     23  C15        5.7640   -0.0620    0.0400 C.ar    1  UNL1        0.0299
     24  C16        6.8480    0.3540   -0.7010 C.ar    1  UNL1       -0.0379
     25  C17        8.1410    0.0350   -0.2940 C.ar    1  UNL1       -0.0247
     26  C18        8.2820   -0.7040    0.8680 C.ar    1  UNL1        0.1235
     27  F1         9.5220   -1.0520    1.3280 F       1  UNL1       -0.2055
     28  C19        7.2020   -1.1300    1.6260 C.ar    1  UNL1       -0.0247
     29  C20        5.9210   -0.7870    1.1780 C.ar    1  UNL1       -0.0379
     30  C21        3.5390   -0.7410   -0.6960 C.3     1  UNL1        0.0280
     31  C22        2.1900   -0.2740   -1.1710 C.3     1  UNL1        0.0305
     32 H          -3.6170    1.3844    2.0567 H       1  UNL1        0.0423
     33 H          -4.1132   -0.2450    2.4730 H       1  UNL1        0.0423
     34 H          -6.2377    2.7666   -1.1991 H       1  UNL1        0.1921
     35 H          -8.3733   -1.2694   -1.6315 H       1  UNL1        0.0625
     36 H          -8.0803   -3.4213   -0.5482 H       1  UNL1        0.0618
     37 H          -6.3687   -3.6941    1.0949 H       1  UNL1        0.0618
     38 H          -4.9047   -1.8816    1.7195 H       1  UNL1        0.0624
     39 H          -1.5830    1.6671    1.1214 H       1  UNL1        0.1492
     40 H          -0.6530   -0.1040   -0.8653 H       1  UNL1        0.0558
     41 H           0.0523   -0.5389    0.6928 H       1  UNL1        0.0558
     42 H           2.5639    2.9201   -0.2688 H       1  UNL1        0.0480
     43 H           2.8449    2.3135   -1.9296 H       1  UNL1        0.0480
     44 H           4.4949    2.1966    0.3823 H       1  UNL1        0.0479
     45 H           4.8498    2.0535   -1.3603 H       1  UNL1        0.0479
     46 H           6.7013    0.9045   -1.5615 H       1  UNL1        0.0637
     47 H           8.9636    0.3383   -0.8385 H       1  UNL1        0.0647
     48 H           7.3376   -1.6798    2.4888 H       1  UNL1        0.0647
     49 H           5.0919   -1.0863    1.7148 H       1  UNL1        0.0637
     50 H           3.3980   -1.3164    0.1951 H       1  UNL1        0.0479
     51 H           3.9634   -1.3066   -1.4990 H       1  UNL1        0.0479
     52 H           2.1879   -0.2609   -2.2409 H       1  UNL1        0.0480
     53 H           1.4560   -0.9507   -0.7861 H       1  UNL1        0.0480
@<TRIPOS>BOND
     1     1     2    2
     2     2     3    1
     3     2    15   am
     4     3     4    1
     5     4     5   ar
     6     4    14   ar
     7     5     6   ar
     8     6     7   ar
     9     7     8    2
    10     7     9   ar
    11     9    10   ar
    12     9    14   ar
    13    10    11   ar
    14    11    12   ar
    15    12    13   ar
    16    13    14   ar
    17    15    16    1
    18    16    17    1
    19    17    18    2
    20    17    19   am
    21    19    20    1
    22    19    31    1
    23    20    21    1
    24    21    22    1
    25    22    23    1
    26    22    30    1
    27    23    24   ar
    28    23    29   ar
    29    24    25   ar
    30    25    26   ar
    31    26    27    1
    32    26    28   ar
    33    28    29   ar
    34    30    31    1
    35     3    32    1
    36     3    33    1
    37     6    34    1
    38    10    35    1
    39    11    36    1
    40    12    37    1
    41    13    38    1
    42    15    39    1
    43    16    40    1
    44    16    41    1
    45    20    42    1
    46    20    43    1
    47    21    44    1
    48    21    45    1
    49    24    46    1
    50    25    47    1
    51    28    48    1
    52    29    49    1
    53    30    50    1
    54    30    51    1
    55    31    52    1
    56    31    53    1
@<TRIPOS>MOLECULE
../data/bude_mols_rdkit_confs2/molecule_7.pdb
 53 56 0 0 0
SMALL
GASTEIGER

@<TRIPOS>ATOM
      1  O1         2.8220   -1.0040    0.4890 O.2     1  UNL1       -0.2754
      2  C1         2.7470    0.1170    1.0510 C.2     1  UNL1        0.2193
      3  C2         3.9280    0.6510    1.7940 C.3     1  UNL1        0.0685
      4  C3         5.0420   -0.3130    1.7200 C.ar    1  UNL1        0.0780
      5  N1         5.3640   -1.0930    2.7680 N.ar    1  UNL1       -0.1748
      6  N2         6.3680   -1.9710    2.7200 N.ar    1  UNL1       -0.2425
      7  C4         7.1230   -2.1320    1.6200 C.ar    1  UNL1        0.2725
      8  O2         8.0580   -2.9470    1.5690 O.2     1  UNL1       -0.2658
      9  C5         6.8600   -1.3690    0.4920 C.ar    1  UNL1        0.0496
     10  C6         7.6170   -1.5070   -0.6640 C.ar    1  UNL1       -0.0487
     11  C7         7.3180   -0.7250   -1.7590 C.ar    1  UNL1       -0.0610
     12  C8         6.2730    0.1690   -1.6680 C.ar    1  UNL1       -0.0611
     13  C9         5.5310    0.2980   -0.5230 C.ar    1  UNL1       -0.0521
     14  C10        5.8160   -0.4710    0.5730 C.ar    1  UNL1        0.0108
     15  N3         1.5220    0.8270    0.9470 N.am    1  UNL1       -0.3064
     16  C11        0.3750    0.3130    0.2250 C.3     1  UNL1        0.0883
     17  C12       -0.7140    1.3210    0.3300 C.2     1  UNL1        0.2328
     18  O3        -0.5250    2.4050    0.9840 O.2     1  UNL1       -0.2739
     19  N4        -1.9470    1.0550   -0.3040 N.am    1  UNL1       -0.2972
     20  C13       -3.0010    2.0570   -0.1840 C.3     1  UNL1        0.0305
     21  C14       -4.0420    1.6850   -1.2250 C.3     1  UNL1        0.0280
     22  N5        -4.5180    0.3670   -0.8570 N.pl3   1  UNL1       -0.3269
     23  C15       -5.8200    0.1200   -0.4040 C.ar    1  UNL1        0.0299
     24  C16       -6.6940    1.1320   -0.1160 C.ar    1  UNL1       -0.0379
     25  C17       -7.9970    0.8720    0.3290 C.ar    1  UNL1       -0.0247
     26  C18       -8.4280   -0.4310    0.4870 C.ar    1  UNL1        0.1235
     27  F1        -9.6840   -0.7230    0.9170 F       1  UNL1       -0.2055
     28  C19       -7.5510   -1.4530    0.1990 C.ar    1  UNL1       -0.0247
     29  C20       -6.2530   -1.1840   -0.2450 C.ar    1  UNL1       -0.0379
     30  C21       -3.5300   -0.7020   -0.9840 C.3     1  UNL1        0.0280
     31  C22       -2.1220   -0.1670   -1.0370 C.3     1  UNL1        0.0305
     32 H           3.6618    0.8084    2.8183 H       1  UNL1        0.0423
     33 H           4.2327    1.5777    1.3544 H       1  UNL1        0.0423
     34 H           6.5616   -2.5179    3.5154 H       1  UNL1        0.1921
     35 H           8.3932   -2.1861   -0.7027 H       1  UNL1        0.0625
     36 H           7.8658   -0.8073   -2.6297 H       1  UNL1        0.0618
     37 H           6.0430    0.7572   -2.4842 H       1  UNL1        0.0618
     38 H           4.7548    0.9772   -0.4870 H       1  UNL1        0.0624
     39 H           1.4484    1.7061    1.3840 H       1  UNL1        0.1492
     40 H           0.0574   -0.6130    0.6570 H       1  UNL1        0.0558
     41 H           0.6255    0.1371   -0.8003 H       1  UNL1        0.0558
     42 H          -2.6109    3.0341   -0.3791 H       1  UNL1        0.0480
     43 H          -3.4173    2.0762    0.8015 H       1  UNL1        0.0480
     44 H          -3.6020    1.6630   -2.2001 H       1  UNL1        0.0479
     45 H          -4.8402    2.3970   -1.2544 H       1  UNL1        0.0479
     46 H          -6.3864    2.1106   -0.2292 H       1  UNL1        0.0637
     47 H          -8.6356    1.6550    0.5390 H       1  UNL1        0.0647
     48 H          -7.8566   -2.4321    0.3127 H       1  UNL1        0.0647
     49 H          -5.6123   -1.9651   -0.4560 H       1  UNL1        0.0637
     50 H          -3.7259   -1.2483   -1.8829 H       1  UNL1        0.0479
     51 H          -3.6119   -1.3314   -0.1226 H       1  UNL1        0.0479
     52 H          -1.4635   -0.9047   -0.6282 H       1  UNL1        0.0480
     53 H          -1.9043    0.0466   -2.0626 H       1  UNL1        0.0480
@<TRIPOS>BOND
     1     1     2    2
     2     2     3    1
     3     2    15   am
     4     3     4    1
     5     4     5   ar
     6     4    14   ar
     7     5     6   ar
     8     6     7   ar
     9     7     8    2
    10     7     9   ar
    11     9    10   ar
    12     9    14   ar
    13    10    11   ar
    14    11    12   ar
    15    12    13   ar
    16    13    14   ar
    17    15    16    1
    18    16    17    1
    19    17    18    2
    20    17    19   am
    21    19    20    1
    22    19    31    1
    23    20    21    1
    24    21    22    1
    25    22    23    1
    26    22    30    1
    27    23    24   ar
    28    23    29   ar
    29    24    25   ar
    30    25    26   ar
    31    26    27    1
    32    26    28   ar
    33    28    29   ar
    34    30    31    1
    35     3    32    1
    36     3    33    1
    37     6    34    1
    38    10    35    1
    39    11    36    1
    40    12    37    1
    41    13    38    1
    42    15    39    1
    43    16    40    1
    44    16    41    1
    45    20    42    1
    46    20    43    1
    47    21    44    1
    48    21    45    1
    49    24    46    1
    50    25    47    1
    51    28    48    1
    52    29    49    1
    53    30    50    1
    54    30    51    1
    55    31    52    1
    56    31    53    1
@<TRIPOS>MOLECULE
../data/bude_mols_rdkit_confs2/molecule_7.pdb
 53 56 0 0 0
SMALL
GASTEIGER

@<TRIPOS>ATOM
      1  O1         2.7780    0.5560   -0.8990 O.2     1  UNL1       -0.2754
      2  C1         2.9080   -0.6800   -1.0700 C.2     1  UNL1        0.2193
      3  C2         4.2250   -1.2090   -1.5030 C.3     1  UNL1        0.0685
      4  C3         5.1630   -0.0940   -1.6450 C.ar    1  UNL1        0.0780
      5  N1         5.4690    0.3110   -2.9070 N.ar    1  UNL1       -0.1748
      6  N2         6.3140    1.3100   -3.0550 N.ar    1  UNL1       -0.2425
      7  C4         6.8860    1.9470   -2.0210 C.ar    1  UNL1        0.2725
      8  O2         7.6920    2.8980   -2.1400 O.2     1  UNL1       -0.2658
      9  C5         6.5840    1.5450   -0.7250 C.ar    1  UNL1        0.0496
     10  C6         7.1390    2.1610    0.3590 C.ar    1  UNL1       -0.0487
     11  C7         6.8040    1.7240    1.6330 C.ar    1  UNL1       -0.0610
     12  C8         5.9230    0.6820    1.8060 C.ar    1  UNL1       -0.0611
     13  C9         5.3500    0.0440    0.7130 C.ar    1  UNL1       -0.0521
     14  C10        5.7060    0.5050   -0.5360 C.ar    1  UNL1        0.0108
     15  N3         1.7770   -1.5050   -0.8370 N.am    1  UNL1       -0.3064
     16  C11        0.5390   -0.8860   -0.4170 C.3     1  UNL1        0.0883
     17  C12       -0.5510   -1.8550   -0.2090 C.2     1  UNL1        0.2328
     18  O3        -0.3390   -3.0800   -0.4010 O.2     1  UNL1       -0.2739
     19  N4        -1.8120   -1.3770    0.2020 N.am    1  UNL1       -0.2972
     20  C13       -2.0620    0.0200    0.4220 C.3     1  UNL1        0.0305
     21  C14       -3.4160    0.4430   -0.1690 C.3     1  UNL1        0.0280
     22  N5        -4.4040   -0.3470    0.5020 N.pl3   1  UNL1       -0.3269
     23  C15       -5.7240    0.1520    0.6430 C.ar    1  UNL1        0.0299
     24  C16       -6.6940   -0.5070    1.3680 C.ar    1  UNL1       -0.0379
     25  C17       -7.9760   -0.0180    1.4970 C.ar    1  UNL1       -0.0247
     26  C18       -8.3370    1.1730    0.8900 C.ar    1  UNL1        0.1235
     27  F1        -9.6070    1.6160    1.0420 F       1  UNL1       -0.2055
     28  C19       -7.3750    1.8400    0.1620 C.ar    1  UNL1       -0.0247
     29  C20       -6.0900    1.3460    0.0360 C.ar    1  UNL1       -0.0379
     30  C21       -4.1080   -1.6560    1.0490 C.3     1  UNL1        0.0280
     31  C22       -2.8990   -2.2990    0.4160 C.3     1  UNL1        0.0305
     32 H           4.1190   -1.7105   -2.4422 H       1  UNL1        0.0423
     33 H           4.5937   -1.9012   -0.7751 H       1  UNL1        0.0423
     34 H           6.5370    1.6039   -3.9678 H       1  UNL1        0.1921
     35 H           7.8004    2.9431    0.2328 H       1  UNL1        0.0625
     36 H           7.2195    2.1849    2.4576 H       1  UNL1        0.0618
     37 H           5.6845    0.3700    2.7604 H       1  UNL1        0.0618
     38 H           4.6883   -0.7391    0.8309 H       1  UNL1        0.0624
     39 H           1.8340   -2.4803   -0.9589 H       1  UNL1        0.1492
     40 H           0.2351   -0.1881   -1.1690 H       1  UNL1        0.0558
     41 H           0.7242   -0.4081    0.5223 H       1  UNL1        0.0558
     42 H          -1.2851    0.5908   -0.0423 H       1  UNL1        0.0480
     43 H          -2.0827    0.1981    1.4769 H       1  UNL1        0.0480
     44 H          -3.4385    0.2511   -1.2214 H       1  UNL1        0.0479
     45 H          -3.5929    1.4895   -0.0334 H       1  UNL1        0.0479
     46 H          -6.4517   -1.3974    1.8301 H       1  UNL1        0.0637
     47 H          -8.6716   -0.5430    2.0497 H       1  UNL1        0.0647
     48 H          -7.6200    2.7296   -0.3001 H       1  UNL1        0.0647
     49 H          -5.3940    1.8712   -0.5161 H       1  UNL1        0.0637
     50 H          -4.9544   -2.2912    0.8906 H       1  UNL1        0.0479
     51 H          -3.8946   -1.5276    2.0896 H       1  UNL1        0.0479
     52 H          -2.5572   -3.0848    1.0567 H       1  UNL1        0.0480
     53 H          -3.1993   -2.6647   -0.5437 H       1  UNL1        0.0480
@<TRIPOS>BOND
     1     1     2    2
     2     2     3    1
     3     2    15   am
     4     3     4    1
     5     4     5   ar
     6     4    14   ar
     7     5     6   ar
     8     6     7   ar
     9     7     8    2
    10     7     9   ar
    11     9    10   ar
    12     9    14   ar
    13    10    11   ar
    14    11    12   ar
    15    12    13   ar
    16    13    14   ar
    17    15    16    1
    18    16    17    1
    19    17    18    2
    20    17    19   am
    21    19    20    1
    22    19    31    1
    23    20    21    1
    24    21    22    1
    25    22    23    1
    26    22    30    1
    27    23    24   ar
    28    23    29   ar
    29    24    25   ar
    30    25    26   ar
    31    26    27    1
    32    26    28   ar
    33    28    29   ar
    34    30    31    1
    35     3    32    1
    36     3    33    1
    37     6    34    1
    38    10    35    1
    39    11    36    1
    40    12    37    1
    41    13    38    1
    42    15    39    1
    43    16    40    1
    44    16    41    1
    45    20    42    1
    46    20    43    1
    47    21    44    1
    48    21    45    1
    49    24    46    1
    50    25    47    1
    51    28    48    1
    52    29    49    1
    53    30    50    1
    54    30    51    1
    55    31    52    1
    56    31    53    1
@<TRIPOS>MOLECULE
../data/bude_mols_rdkit_confs2/molecule_7.pdb
 53 56 0 0 0
SMALL
GASTEIGER

@<TRIPOS>ATOM
      1  O1         2.1220    0.1920    0.3080 O.2     1  UNL1       -0.2754
      2  C1         2.6390   -0.1060    1.3900 C.2     1  UNL1        0.2193
      3  C2         4.0020    0.2810    1.8240 C.3     1  UNL1        0.0685
      4  C3         4.7240    1.0770    0.8330 C.ar    1  UNL1        0.0780
      5  N1         4.8980    2.4020    0.9450 N.ar    1  UNL1       -0.1748
      6  N2         5.5420    3.1410    0.0680 N.ar    1  UNL1       -0.2425
      7  C4         6.0670    2.5550   -1.0140 C.ar    1  UNL1        0.2725
      8  O2         6.6990    3.1930   -1.9000 O.2     1  UNL1       -0.2658
      9  C5         5.9270    1.1960   -1.1950 C.ar    1  UNL1        0.0496
     10  C6         6.4630    0.5600   -2.3130 C.ar    1  UNL1       -0.0487
     11  C7         6.2970   -0.7940   -2.4480 C.ar    1  UNL1       -0.0610
     12  C8         5.6180   -1.5430   -1.5130 C.ar    1  UNL1       -0.0611
     13  C9         5.0790   -0.9490   -0.4050 C.ar    1  UNL1       -0.0521
     14  C10        5.2510    0.4330   -0.2720 C.ar    1  UNL1        0.0108
     15  N3         1.8670   -0.8890    2.3120 N.am    1  UNL1       -0.3064
     16  C11        0.5280   -1.3210    1.9950 C.3     1  UNL1        0.0883
     17  C12       -0.3100   -0.1050    1.7670 C.2     1  UNL1        0.2328
     18  O3         0.1840    1.0480    1.8630 O.2     1  UNL1       -0.2739
     19  N4        -1.6870   -0.2060    1.4350 N.am    1  UNL1       -0.2972
     20  C13       -2.3510   -1.4910    1.3000 C.3     1  UNL1        0.0305
     21  C14       -3.1830   -1.5490    0.0380 C.3     1  UNL1        0.0280
     22  N5        -3.8500   -0.3080   -0.2370 N.pl3   1  UNL1       -0.3269
     23  C15       -5.2440   -0.2120   -0.5000 C.ar    1  UNL1        0.0299
     24  C16       -5.8140    0.8110   -1.2290 C.ar    1  UNL1       -0.0379
     25  C17       -7.1930    0.8850   -1.4530 C.ar    1  UNL1       -0.0247
     26  C18       -8.0490   -0.0670   -0.9520 C.ar    1  UNL1        0.1235
     27  F1        -9.3910   -0.0230   -1.1510 F       1  UNL1       -0.2055
     28  C19       -7.5010   -1.0940   -0.2220 C.ar    1  UNL1       -0.0247
     29  C20       -6.1210   -1.1690    0.0020 C.ar    1  UNL1       -0.0379
     30  C21       -3.0130    0.9050   -0.2150 C.3     1  UNL1        0.0280
     31  C22       -2.4710    0.9850    1.2220 C.3     1  UNL1        0.0305
     32 H           4.5622   -0.6101    2.0164 H       1  UNL1        0.0423
     33 H           3.8940    0.8883    2.6983 H       1  UNL1        0.0423
     34 H           5.6363    4.1112    0.2058 H       1  UNL1        0.1921
     35 H           6.9764    1.0994   -3.0275 H       1  UNL1        0.0625
     36 H           6.6930   -1.2665   -3.2756 H       1  UNL1        0.0618
     37 H           5.5150   -2.5608   -1.6493 H       1  UNL1        0.0618
     38 H           4.5668   -1.4975    0.3034 H       1  UNL1        0.0624
     39 H           2.2600   -1.1367    3.1800 H       1  UNL1        0.1492
     40 H           0.1282   -1.8897    2.8084 H       1  UNL1        0.0558
     41 H           0.5344   -1.9364    1.1197 H       1  UNL1        0.0558
     42 H          -2.9887   -1.6445    2.1454 H       1  UNL1        0.0480
     43 H          -1.6029   -2.2542    1.2471 H       1  UNL1        0.0480
     44 H          -3.9193   -2.3177    0.1472 H       1  UNL1        0.0479
     45 H          -2.5220   -1.7513   -0.7787 H       1  UNL1        0.0479
     46 H          -5.2039    1.5450   -1.6216 H       1  UNL1        0.0637
     47 H          -7.5749    1.6691   -2.0048 H       1  UNL1        0.0647
     48 H          -8.1179   -1.8234    0.1683 H       1  UNL1        0.0647
     49 H          -5.7439   -1.9551    0.5542 H       1  UNL1        0.0637
     50 H          -3.5983    1.7706   -0.4454 H       1  UNL1        0.0479
     51 H          -2.2275    0.8658   -0.9405 H       1  UNL1        0.0479
     52 H          -1.8590    1.8551    1.3376 H       1  UNL1        0.0480
     53 H          -3.2690    1.0529    1.9315 H       1  UNL1        0.0480
@<TRIPOS>BOND
     1     1     2    2
     2     2     3    1
     3     2    15   am
     4     3     4    1
     5     4     5   ar
     6     4    14   ar
     7     5     6   ar
     8     6     7   ar
     9     7     8    2
    10     7     9   ar
    11     9    10   ar
    12     9    14   ar
    13    10    11   ar
    14    11    12   ar
    15    12    13   ar
    16    13    14   ar
    17    15    16    1
    18    16    17    1
    19    17    18    2
    20    17    19   am
    21    19    20    1
    22    19    31    1
    23    20    21    1
    24    21    22    1
    25    22    23    1
    26    22    30    1
    27    23    24   ar
    28    23    29   ar
    29    24    25   ar
    30    25    26   ar
    31    26    27    1
    32    26    28   ar
    33    28    29   ar
    34    30    31    1
    35     3    32    1
    36     3    33    1
    37     6    34    1
    38    10    35    1
    39    11    36    1
    40    12    37    1
    41    13    38    1
    42    15    39    1
    43    16    40    1
    44    16    41    1
    45    20    42    1
    46    20    43    1
    47    21    44    1
    48    21    45    1
    49    24    46    1
    50    25    47    1
    51    28    48    1
    52    29    49    1
    53    30    50    1
    54    30    51    1
    55    31    52    1
    56    31    53    1
@<TRIPOS>MOLECULE
../data/bude_mols_rdkit_confs2/molecule_7.pdb
 53 56 0 0 0
SMALL
GASTEIGER

@<TRIPOS>ATOM
      1  O1        -2.2220   -0.7890   -0.2740 O.2     1  UNL1       -0.2754
      2  C1        -2.4630    0.4180   -0.5520 C.2     1  UNL1        0.2193
      3  C2        -3.8040    1.0010   -0.4300 C.3     1  UNL1        0.0685
      4  C3        -4.8240    0.0670    0.0410 C.ar    1  UNL1        0.0780
      5  N1        -4.6090   -1.2200    0.3570 N.ar    1  UNL1       -0.1748
      6  N2        -5.5930   -1.9970    0.7790 N.ar    1  UNL1       -0.2425
      7  C4        -6.8620   -1.5770    0.9240 C.ar    1  UNL1        0.2725
      8  O2        -7.7750   -2.3700    1.3360 O.2     1  UNL1       -0.2658
      9  C5        -7.1560   -0.2640    0.6180 C.ar    1  UNL1        0.0496
     10  C6        -8.4440    0.2200    0.7500 C.ar    1  UNL1       -0.0487
     11  C7        -8.7190    1.5330    0.4400 C.ar    1  UNL1       -0.0610
     12  C8        -7.7220    2.3660    0.0010 C.ar    1  UNL1       -0.0611
     13  C9        -6.4480    1.8540   -0.1210 C.ar    1  UNL1       -0.0521
     14  C10       -6.1220    0.5480    0.1760 C.ar    1  UNL1        0.0108
     15  N3        -1.4010    1.2480   -0.9990 N.am    1  UNL1       -0.3064
     16  C11       -0.0430    0.7780   -1.1550 C.3     1  UNL1        0.0883
     17  C12        0.5430    0.2740    0.0870 C.2     1  UNL1        0.2328
     18  O3        -0.1100    0.2690    1.1530 O.2     1  UNL1       -0.2739
     19  N4         1.8690   -0.2190    0.1010 N.am    1  UNL1       -0.2972
     20  C13        2.6600   -0.2320   -1.0970 C.3     1  UNL1        0.0305
     21  C14        3.9390   -1.0180   -0.9290 C.3     1  UNL1        0.0280
     22  N5         4.6600   -0.6130    0.2530 N.pl3   1  UNL1       -0.3269
     23  C15        6.0760   -0.6030    0.2340 C.ar    1  UNL1        0.0299
     24  C16        6.8640   -1.0430   -0.8000 C.ar    1  UNL1       -0.0379
     25  C17        8.2600   -0.9940   -0.7330 C.ar    1  UNL1       -0.0247
     26  C18        8.8840   -0.4960    0.3890 C.ar    1  UNL1        0.1235
     27  F1        10.2490   -0.4460    0.4580 F       1  UNL1       -0.2055
     28  C19        8.1010   -0.0500    1.4360 C.ar    1  UNL1       -0.0247
     29  C20        6.7260   -0.1090    1.3470 C.ar    1  UNL1       -0.0379
     30  C21        3.9160   -0.2280    1.4440 C.3     1  UNL1        0.0280
     31  C22        2.4930   -0.7310    1.3140 C.3     1  UNL1        0.0305
     32 H          -4.1005    1.3642   -1.3918 H       1  UNL1        0.0423
     33 H          -3.7358    1.7766    0.3039 H       1  UNL1        0.0423
     34 H          -5.3848   -2.9338    0.9988 H       1  UNL1        0.1921
     35 H          -9.1984   -0.4019    1.0804 H       1  UNL1        0.0625
     36 H          -9.6813    1.8925    0.5386 H       1  UNL1        0.0618
     37 H          -7.9206    3.3515   -0.2322 H       1  UNL1        0.0618
     38 H          -5.6987    2.4816   -0.4522 H       1  UNL1        0.0624
     39 H          -1.5991    2.1884   -1.2128 H       1  UNL1        0.1492
     40 H           0.5582    1.5892   -1.5091 H       1  UNL1        0.0558
     41 H          -0.0684   -0.0381   -1.8465 H       1  UNL1        0.0558
     42 H           2.9069    0.7760   -1.3576 H       1  UNL1        0.0480
     43 H           2.0838   -0.7035   -1.8655 H       1  UNL1        0.0480
     44 H           4.5596   -0.8586   -1.7859 H       1  UNL1        0.0479
     45 H           3.6852   -2.0525   -0.8280 H       1  UNL1        0.0479
     46 H           6.4146   -1.4199   -1.6491 H       1  UNL1        0.0637
     47 H           8.8248   -1.3324   -1.5276 H       1  UNL1        0.0647
     48 H           8.5460    0.3283    2.2868 H       1  UNL1        0.0647
     49 H           6.1619    0.2289    2.1424 H       1  UNL1        0.0637
     50 H           3.9136    0.8379    1.5377 H       1  UNL1        0.0479
     51 H           4.3742   -0.6533    2.3124 H       1  UNL1        0.0479
     52 H           2.5013   -1.8004    1.2791 H       1  UNL1        0.0480
     53 H           1.9312   -0.3888    2.1579 H       1  UNL1        0.0480
@<TRIPOS>BOND
     1     1     2    2
     2     2     3    1
     3     2    15   am
     4     3     4    1
     5     4     5   ar
     6     4    14   ar
     7     5     6   ar
     8     6     7   ar
     9     7     8    2
    10     7     9   ar
    11     9    10   ar
    12     9    14   ar
    13    10    11   ar
    14    11    12   ar
    15    12    13   ar
    16    13    14   ar
    17    15    16    1
    18    16    17    1
    19    17    18    2
    20    17    19   am
    21    19    20    1
    22    19    31    1
    23    20    21    1
    24    21    22    1
    25    22    23    1
    26    22    30    1
    27    23    24   ar
    28    23    29   ar
    29    24    25   ar
    30    25    26   ar
    31    26    27    1
    32    26    28   ar
    33    28    29   ar
    34    30    31    1
    35     3    32    1
    36     3    33    1
    37     6    34    1
    38    10    35    1
    39    11    36    1
    40    12    37    1
    41    13    38    1
    42    15    39    1
    43    16    40    1
    44    16    41    1
    45    20    42    1
    46    20    43    1
    47    21    44    1
    48    21    45    1
    49    24    46    1
    50    25    47    1
    51    28    48    1
    52    29    49    1
    53    30    50    1
    54    30    51    1
    55    31    52    1
    56    31    53    1
@<TRIPOS>MOLECULE
../data/bude_mols_rdkit_confs2/molecule_7.pdb
 53 56 0 0 0
SMALL
GASTEIGER

@<TRIPOS>ATOM
      1  O1         2.3400    0.0410    0.6800 O.2     1  UNL1       -0.2754
      2  C1         2.3920    0.6950   -0.3840 C.2     1  UNL1        0.2193
      3  C2         3.5150    1.5590   -0.8280 C.3     1  UNL1        0.0685
      4  C3         4.7900    0.8480   -0.9700 C.ar    1  UNL1        0.0780
      5  N1         5.1250    0.4260   -2.2210 N.ar    1  UNL1       -0.1748
      6  N2         6.2210   -0.2490   -2.4350 N.ar    1  UNL1       -0.2425
      7  C4         7.0690   -0.5600   -1.4420 C.ar    1  UNL1        0.2725
      8  O2         8.1190   -1.2190   -1.7120 O.2     1  UNL1       -0.2658
      9  C5         6.7890   -0.1620   -0.1570 C.ar    1  UNL1        0.0496
     10  C6         7.6400   -0.4550    0.8750 C.ar    1  UNL1       -0.0487
     11  C7         7.3100   -0.0150    2.1510 C.ar    1  UNL1       -0.0610
     12  C8         6.1490    0.7020    2.3810 C.ar    1  UNL1       -0.0611
     13  C9         5.3000    0.9900    1.3360 C.ar    1  UNL1       -0.0521
     14  C10        5.6170    0.5580    0.0670 C.ar    1  UNL1        0.0108
     15  N3         1.2160    0.5540   -1.2220 N.am    1  UNL1       -0.3064
     16  C11        0.0990   -0.2560   -0.8670 C.3     1  UNL1        0.0883
     17  C12       -0.5970    0.1080    0.3660 C.2     1  UNL1        0.2328
     18  O3        -0.1990    1.0800    1.0480 O.2     1  UNL1       -0.2739
     19  N4        -1.7080   -0.6260    0.7810 N.am    1  UNL1       -0.2972
     20  C13       -2.4360   -0.2930    1.9630 C.3     1  UNL1        0.0305
     21  C14       -3.9290   -0.4950    1.7720 C.3     1  UNL1        0.0280
     22  N5        -4.3390   -0.6590    0.4150 N.pl3   1  UNL1       -0.3269
     23  C15       -5.6100   -0.1550   -0.0350 C.ar    1  UNL1        0.0299
     24  C16       -5.9410   -0.2350   -1.3830 C.ar    1  UNL1       -0.0379
     25  C17       -7.1490    0.2370   -1.8690 C.ar    1  UNL1       -0.0247
     26  C18       -8.0480    0.8010   -0.9850 C.ar    1  UNL1        0.1235
     27  F1        -9.2490    1.2750   -1.4420 F       1  UNL1       -0.2055
     28  C19       -7.7670    0.9020    0.3600 C.ar    1  UNL1       -0.0247
     29  C20       -6.5320    0.4110    0.8020 C.ar    1  UNL1       -0.0379
     30  C21       -3.5180   -1.3280   -0.5600 C.3     1  UNL1        0.0280
     31  C22       -2.1910   -1.7630    0.0210 C.3     1  UNL1        0.0305
     32 H           3.6433    2.3410   -0.1091 H       1  UNL1        0.0423
     33 H           3.2567    1.9313   -1.7973 H       1  UNL1        0.0423
     34 H           6.4322   -0.5388   -3.3519 H       1  UNL1        0.1921
     35 H           8.5065   -0.9903    0.7089 H       1  UNL1        0.0625
     36 H           7.9409   -0.2263    2.9399 H       1  UNL1        0.0618
     37 H           5.9196    1.0207    3.3354 H       1  UNL1        0.0618
     38 H           4.4333    1.5251    1.5021 H       1  UNL1        0.0624
     39 H           1.1886    1.0414   -2.0769 H       1  UNL1        0.1492
     40 H           0.4464   -1.2625   -0.7607 H       1  UNL1        0.0558
     41 H          -0.6159   -0.1169   -1.6509 H       1  UNL1        0.0558
     42 H          -2.2522    0.7324    2.2073 H       1  UNL1        0.0480
     43 H          -2.1081   -0.9370    2.7521 H       1  UNL1        0.0480
     44 H          -4.4349    0.3587    2.1723 H       1  UNL1        0.0479
     45 H          -4.1779   -1.4058    2.2754 H       1  UNL1        0.0479
     46 H          -5.2673   -0.6582   -2.0403 H       1  UNL1        0.0637
     47 H          -7.3735    0.1685   -2.8740 H       1  UNL1        0.0647
     48 H          -8.4415    1.3238    1.0174 H       1  UNL1        0.0647
     49 H          -6.3070    0.4795    1.8068 H       1  UNL1        0.0637
     50 H          -3.3358   -0.6597   -1.3755 H       1  UNL1        0.0479
     51 H          -4.0392   -2.2035   -0.8868 H       1  UNL1        0.0479
     52 H          -2.3228   -2.6110    0.6601 H       1  UNL1        0.0480
     53 H          -1.4995   -2.0521   -0.7427 H       1  UNL1        0.0480
@<TRIPOS>BOND
     1     1     2    2
     2     2     3    1
     3     2    15   am
     4     3     4    1
     5     4     5   ar
     6     4    14   ar
     7     5     6   ar
     8     6     7   ar
     9     7     8    2
    10     7     9   ar
    11     9    10   ar
    12     9    14   ar
    13    10    11   ar
    14    11    12   ar
    15    12    13   ar
    16    13    14   ar
    17    15    16    1
    18    16    17    1
    19    17    18    2
    20    17    19   am
    21    19    20    1
    22    19    31    1
    23    20    21    1
    24    21    22    1
    25    22    23    1
    26    22    30    1
    27    23    24   ar
    28    23    29   ar
    29    24    25   ar
    30    25    26   ar
    31    26    27    1
    32    26    28   ar
    33    28    29   ar
    34    30    31    1
    35     3    32    1
    36     3    33    1
    37     6    34    1
    38    10    35    1
    39    11    36    1
    40    12    37    1
    41    13    38    1
    42    15    39    1
    43    16    40    1
    44    16    41    1
    45    20    42    1
    46    20    43    1
    47    21    44    1
    48    21    45    1
    49    24    46    1
    50    25    47    1
    51    28    48    1
    52    29    49    1
    53    30    50    1
    54    30    51    1
    55    31    52    1
    56    31    53    1
@<TRIPOS>MOLECULE
../data/bude_mols_rdkit_confs2/molecule_7.pdb
 53 56 0 0 0
SMALL
GASTEIGER

@<TRIPOS>ATOM
      1  O1         3.3310    1.4820   -0.0320 O.2     1  UNL1       -0.2754
      2  C1         2.5700    0.7600    0.6240 C.2     1  UNL1        0.2193
      3  C2         3.0750   -0.3130    1.4810 C.3     1  UNL1        0.0685
      4  C3         4.5550   -0.3350    1.3980 C.ar    1  UNL1        0.0780
      5  N1         5.3380    0.1510    2.3860 N.ar    1  UNL1       -0.1748
      6  N2         6.6590    0.1330    2.3150 N.ar    1  UNL1       -0.2425
      7  C4         7.3410   -0.3620    1.2680 C.ar    1  UNL1        0.2725
      8  O2         8.6130   -0.3670    1.2250 O.2     1  UNL1       -0.2658
      9  C5         6.5970   -0.8750    0.2210 C.ar    1  UNL1        0.0496
     10  C6         7.2750   -1.3860   -0.8590 C.ar    1  UNL1       -0.0487
     11  C7         6.5350   -1.9000   -1.9080 C.ar    1  UNL1       -0.0610
     12  C8         5.1520   -1.8900   -1.8510 C.ar    1  UNL1       -0.0611
     13  C9         4.4770   -1.3740   -0.7610 C.ar    1  UNL1       -0.0521
     14  C10        5.2010   -0.8560    0.2960 C.ar    1  UNL1        0.0108
     15  N3         1.1330    1.0270    0.5050 N.am    1  UNL1       -0.3064
     16  C11        0.7090    2.0850   -0.3440 C.3     1  UNL1        0.0883
     17  C12       -0.6740    2.3870   -0.5040 C.2     1  UNL1        0.2328
     18  O3        -0.8570    3.4350   -1.3360 O.2     1  UNL1       -0.2739
     19  N4        -1.8340    1.8400    0.0050 N.am    1  UNL1       -0.2972
     20  C13       -3.0920    2.5030   -0.4120 C.3     1  UNL1        0.0305
     21  C14       -3.9410    1.4020   -1.0280 C.3     1  UNL1        0.0280
     22  N5        -4.2190    0.4090    0.0130 N.pl3   1  UNL1       -0.3269
     23  C15       -5.3230   -0.4300   -0.1650 C.ar    1  UNL1        0.0299
     24  C16       -6.0710   -0.4610   -1.3290 C.ar    1  UNL1       -0.0379
     25  C17       -7.1480   -1.3080   -1.4270 C.ar    1  UNL1       -0.0247
     26  C18       -7.5410   -2.1460   -0.4200 C.ar    1  UNL1        0.1235
     27  F1        -8.6160   -2.9790   -0.5400 F       1  UNL1       -0.2055
     28  C19       -6.8010   -2.1170    0.7390 C.ar    1  UNL1       -0.0247
     29  C20       -5.7140   -1.2710    0.8540 C.ar    1  UNL1       -0.0379
     30  C21       -3.3880    0.3100    1.1640 C.3     1  UNL1        0.0280
     31  C22       -1.9440    0.7280    0.8630 C.3     1  UNL1        0.0305
     32 H           2.6824   -1.2519    1.1506 H       1  UNL1        0.0423
     33 H           2.7703   -0.1438    2.4927 H       1  UNL1        0.0423
     34 H           7.1705    0.5025    3.0707 H       1  UNL1        0.1921
     35 H           8.3066   -1.3863   -0.8867 H       1  UNL1        0.0625
     36 H           7.0142   -2.2913   -2.7340 H       1  UNL1        0.0618
     37 H           4.6123   -2.2769   -2.6410 H       1  UNL1        0.0618
     38 H           3.4453   -1.3755   -0.7367 H       1  UNL1        0.0624
     39 H           0.4773    0.4860    1.0016 H       1  UNL1        0.1492
     40 H           1.0868    1.8621   -1.3200 H       1  UNL1        0.0558
     41 H           1.0834    2.9534    0.1566 H       1  UNL1        0.0558
     42 H          -2.8913    3.2686   -1.1320 H       1  UNL1        0.0480
     43 H          -3.5864    2.9743    0.4116 H       1  UNL1        0.0480
     44 H          -3.4100    0.9427   -1.8355 H       1  UNL1        0.0479
     45 H          -4.8551    1.8067   -1.4094 H       1  UNL1        0.0479
     46 H          -5.8203    0.1507   -2.1214 H       1  UNL1        0.0637
     47 H          -7.6886   -1.3123   -2.3060 H       1  UNL1        0.0647
     48 H          -7.0589   -2.7307    1.5276 H       1  UNL1        0.0647
     49 H          -5.1760   -1.2692    1.7347 H       1  UNL1        0.0637
     50 H          -3.3906   -0.7037    1.5066 H       1  UNL1        0.0479
     51 H          -3.7759    0.9703    1.9113 H       1  UNL1        0.0479
     52 H          -1.4641    0.9689    1.7885 H       1  UNL1        0.0480
     53 H          -1.4826   -0.0963    0.3605 H       1  UNL1        0.0480
@<TRIPOS>BOND
     1     1     2    2
     2     2     3    1
     3     2    15   am
     4     3     4    1
     5     4     5   ar
     6     4    14   ar
     7     5     6   ar
     8     6     7   ar
     9     7     8    2
    10     7     9   ar
    11     9    10   ar
    12     9    14   ar
    13    10    11   ar
    14    11    12   ar
    15    12    13   ar
    16    13    14   ar
    17    15    16    1
    18    16    17    1
    19    17    18    2
    20    17    19   am
    21    19    20    1
    22    19    31    1
    23    20    21    1
    24    21    22    1
    25    22    23    1
    26    22    30    1
    27    23    24   ar
    28    23    29   ar
    29    24    25   ar
    30    25    26   ar
    31    26    27    1
    32    26    28   ar
    33    28    29   ar
    34    30    31    1
    35     3    32    1
    36     3    33    1
    37     6    34    1
    38    10    35    1
    39    11    36    1
    40    12    37    1
    41    13    38    1
    42    15    39    1
    43    16    40    1
    44    16    41    1
    45    20    42    1
    46    20    43    1
    47    21    44    1
    48    21    45    1
    49    24    46    1
    50    25    47    1
    51    28    48    1
    52    29    49    1
    53    30    50    1
    54    30    51    1
    55    31    52    1
    56    31    53    1
@<TRIPOS>MOLECULE
../data/bude_mols_rdkit_confs2/molecule_7.pdb
 53 56 0 0 0
SMALL
GASTEIGER

@<TRIPOS>ATOM
      1  O1         2.2860    1.8700    0.9950 O.2     1  UNL1       -0.2754
      2  C1         1.7310    2.4380    0.0410 C.2     1  UNL1        0.2193
      3  C2         2.3090    2.3740   -1.3010 C.3     1  UNL1        0.0685
      4  C3         3.5700    1.6220   -1.3910 C.ar    1  UNL1        0.0780
      5  N1         4.7340    2.3040   -1.3950 N.ar    1  UNL1       -0.1748
      6  N2         5.9100    1.6750   -1.4450 N.ar    1  UNL1       -0.2425
      7  C4         6.0160    0.3350   -1.4940 C.ar    1  UNL1        0.2725
      8  O2         7.1410   -0.2470   -1.5410 O.2     1  UNL1       -0.2658
      9  C5         4.8530   -0.3940   -1.4930 C.ar    1  UNL1        0.0496
     10  C6         4.9320   -1.7620   -1.5510 C.ar    1  UNL1       -0.0487
     11  C7         3.7790   -2.5450   -1.5620 C.ar    1  UNL1       -0.0610
     12  C8         2.5580   -1.8750   -1.5110 C.ar    1  UNL1       -0.0611
     13  C9         2.4630   -0.5020   -1.4520 C.ar    1  UNL1       -0.0521
     14  C10        3.6280    0.2550   -1.4410 C.ar    1  UNL1        0.0108
     15  N3         0.5270    3.1570    0.2740 N.am    1  UNL1       -0.3064
     16  C11       -0.1310    3.3090    1.5260 C.3     1  UNL1        0.0883
     17  C12       -0.6950    2.1770    2.2200 C.2     1  UNL1        0.2328
     18  O3        -1.1980    2.4810    3.3970 O.2     1  UNL1       -0.2739
     19  N4        -0.8160    0.8320    1.8950 N.am    1  UNL1       -0.2972
     20  C13       -1.4250   -0.0850    2.8930 C.3     1  UNL1        0.0305
     21  C14       -2.8160   -0.3700    2.3380 C.3     1  UNL1        0.0280
     22  N5        -2.6330   -0.9520    1.0010 N.pl3   1  UNL1       -0.3269
     23  C15       -3.8070   -1.3840    0.3470 C.ar    1  UNL1        0.0299
     24  C16       -3.7560   -2.1480   -0.7880 C.ar    1  UNL1       -0.0379
     25  C17       -4.9530   -2.5390   -1.4040 C.ar    1  UNL1       -0.0247
     26  C18       -6.1880   -2.1910   -0.9200 C.ar    1  UNL1        0.1235
     27  F1        -7.2940   -2.6160   -1.5830 F       1  UNL1       -0.2055
     28  C19       -6.2310   -1.4250    0.2190 C.ar    1  UNL1       -0.0247
     29  C20       -5.0620   -1.0320    0.8360 C.ar    1  UNL1       -0.0379
     30  C21       -1.3360   -1.0630    0.4060 C.3     1  UNL1        0.0280
     31  C22       -0.4540    0.1730    0.6620 C.3     1  UNL1        0.0305
     32 H           2.4930    3.3745   -1.6329 H       1  UNL1        0.0423
     33 H           1.6013    1.8521   -1.9107 H       1  UNL1        0.0423
     34 H           6.7339    2.2140   -1.4461 H       1  UNL1        0.1921
     35 H           5.8573   -2.2176   -1.5870 H       1  UNL1        0.0625
     36 H           3.8273   -3.5749   -1.6059 H       1  UNL1        0.0618
     37 H           1.6885   -2.4308   -1.5177 H       1  UNL1        0.0618
     38 H           1.5397   -0.0423   -1.4165 H       1  UNL1        0.0624
     39 H           0.1091    3.5907   -0.5047 H       1  UNL1        0.1492
     40 H          -0.9353    3.9957    1.3636 H       1  UNL1        0.0558
     41 H           0.6686    3.6026    2.1736 H       1  UNL1        0.0558
     42 H          -1.4880    0.3854    3.8520 H       1  UNL1        0.0480
     43 H          -0.8500   -0.9760    3.0359 H       1  UNL1        0.0480
     44 H          -3.3778    0.5381    2.2699 H       1  UNL1        0.0479
     45 H          -3.3524   -1.0403    2.9766 H       1  UNL1        0.0479
     46 H          -2.8471   -2.4327   -1.1853 H       1  UNL1        0.0637
     47 H          -4.9026   -3.1141   -2.2594 H       1  UNL1        0.0647
     48 H          -7.1413   -1.1425    0.6146 H       1  UNL1        0.0647
     49 H          -5.1196   -0.4565    1.6907 H       1  UNL1        0.0637
     50 H          -1.4539   -1.1859   -0.6504 H       1  UNL1        0.0479
     51 H          -0.8482   -1.9046    0.8517 H       1  UNL1        0.0479
     52 H           0.5691   -0.1351    0.7192 H       1  UNL1        0.0480
     53 H          -0.5982    0.8625   -0.1434 H       1  UNL1        0.0480
@<TRIPOS>BOND
     1     1     2    2
     2     2     3    1
     3     2    15   am
     4     3     4    1
     5     4     5   ar
     6     4    14   ar
     7     5     6   ar
     8     6     7   ar
     9     7     8    2
    10     7     9   ar
    11     9    10   ar
    12     9    14   ar
    13    10    11   ar
    14    11    12   ar
    15    12    13   ar
    16    13    14   ar
    17    15    16    1
    18    16    17    1
    19    17    18    2
    20    17    19   am
    21    19    20    1
    22    19    31    1
    23    20    21    1
    24    21    22    1
    25    22    23    1
    26    22    30    1
    27    23    24   ar
    28    23    29   ar
    29    24    25   ar
    30    25    26   ar
    31    26    27    1
    32    26    28   ar
    33    28    29   ar
    34    30    31    1
    35     3    32    1
    36     3    33    1
    37     6    34    1
    38    10    35    1
    39    11    36    1
    40    12    37    1
    41    13    38    1
    42    15    39    1
    43    16    40    1
    44    16    41    1
    45    20    42    1
    46    20    43    1
    47    21    44    1
    48    21    45    1
    49    24    46    1
    50    25    47    1
    51    28    48    1
    52    29    49    1
    53    30    50    1
    54    30    51    1
    55    31    52    1
    56    31    53    1
@<TRIPOS>MOLECULE
../data/bude_mols_rdkit_confs2/molecule_7.pdb
 53 56 0 0 0
SMALL
GASTEIGER

@<TRIPOS>ATOM
      1  O1        -2.1030    0.4640    0.2680 O.2     1  UNL1       -0.2754
      2  C1        -2.4210   -0.5070    0.9960 C.2     1  UNL1        0.2193
      3  C2        -3.8220   -1.0080    0.9790 C.3     1  UNL1        0.0685
      4  C3        -4.6580   -0.2200    0.0440 C.ar    1  UNL1        0.0780
      5  N1        -4.1700    0.7840   -0.7170 N.ar    1  UNL1       -0.1748
      6  N2        -4.9240    1.4800   -1.5480 N.ar    1  UNL1       -0.2425
      7  C4        -6.2410    1.2450   -1.7050 C.ar    1  UNL1        0.2725
      8  O2        -6.9660    1.8960   -2.4870 O.2     1  UNL1       -0.2658
      9  C5        -6.7810    0.2140   -0.9350 C.ar    1  UNL1        0.0496
     10  C6        -8.1130   -0.0790   -1.0430 C.ar    1  UNL1       -0.0487
     11  C7        -8.6980   -1.0850   -0.3060 C.ar    1  UNL1       -0.0610
     12  C8        -7.9010   -1.8160    0.5670 C.ar    1  UNL1       -0.0611
     13  C9        -6.5600   -1.5230    0.6780 C.ar    1  UNL1       -0.0521
     14  C10       -5.9860   -0.5200   -0.0580 C.ar    1  UNL1        0.0108
     15  N3        -1.4620   -1.1200    1.8270 N.am    1  UNL1       -0.3064
     16  C11       -0.1130   -0.6310    1.8410 C.3     1  UNL1        0.0883
     17  C12        0.5380   -0.7140    0.5030 C.2     1  UNL1        0.2328
     18  O3        -0.1870   -1.2020   -0.4300 O.2     1  UNL1       -0.2739
     19  N4         1.8630   -0.2870    0.2710 N.am    1  UNL1       -0.2972
     20  C13        2.4440   -0.3930   -1.0330 C.3     1  UNL1        0.0305
     21  C14        3.7690    0.2740   -1.1700 C.3     1  UNL1        0.0280
     22  N5         4.5920    0.2120    0.0200 N.pl3   1  UNL1       -0.3269
     23  C15        5.9110    0.6990   -0.0400 C.ar    1  UNL1        0.0299
     24  C16        6.3990    1.2870   -1.2100 C.ar    1  UNL1       -0.0379
     25  C17        7.6750    1.7770   -1.3230 C.ar    1  UNL1       -0.0247
     26  C18        8.5400    1.7090   -0.2710 C.ar    1  UNL1        0.1235
     27  F1         9.8080    2.2070   -0.4130 F       1  UNL1       -0.2055
     28  C19        8.1110    1.1410    0.9040 C.ar    1  UNL1       -0.0247
     29  C20        6.8030    0.6440    1.0020 C.ar    1  UNL1       -0.0379
     30  C21        4.0400   -0.3420    1.2220 C.3     1  UNL1        0.0280
     31  C22        2.6290    0.2630    1.3540 C.3     1  UNL1        0.0305
     32 H          -4.2325   -0.9317    1.9642 H       1  UNL1        0.0423
     33 H          -3.8149   -2.0270    0.6528 H       1  UNL1        0.0423
     34 H          -4.5067    2.1999   -2.0742 H       1  UNL1        0.1921
     35 H          -8.6958    0.4690   -1.6949 H       1  UNL1        0.0625
     36 H          -9.7048   -1.2912   -0.3999 H       1  UNL1        0.0618
     37 H          -8.3130   -2.5762    1.1304 H       1  UNL1        0.0618
     38 H          -5.9754   -2.0702    1.3290 H       1  UNL1        0.0624
     39 H          -1.7169   -1.8816    2.3964 H       1  UNL1        0.1492
     40 H           0.4557   -1.2128    2.5360 H       1  UNL1        0.0558
     41 H          -0.1440    0.4004    2.1241 H       1  UNL1        0.0558
     42 H           1.7711    0.0508   -1.7367 H       1  UNL1        0.0480
     43 H           2.6057   -1.4354   -1.2125 H       1  UNL1        0.0480
     44 H           3.6030    1.3035   -1.4096 H       1  UNL1        0.0479
     45 H           4.2989   -0.2507   -1.9373 H       1  UNL1        0.0479
     46 H           5.7708    1.3556   -2.0259 H       1  UNL1        0.0637
     47 H           7.9832    2.2009   -2.2120 H       1  UNL1        0.0647
     48 H           8.7495    1.0801    1.7125 H       1  UNL1        0.0647
     49 H           6.4992    0.2203    1.8926 H       1  UNL1        0.0637
     50 H           4.6407   -0.0739    2.0659 H       1  UNL1        0.0479
     51 H           4.0082   -1.4109    1.1845 H       1  UNL1        0.0479
     52 H           2.1939   -0.0083    2.2932 H       1  UNL1        0.0480
     53 H           2.6543    1.3320    1.3146 H       1  UNL1        0.0480
@<TRIPOS>BOND
     1     1     2    2
     2     2     3    1
     3     2    15   am
     4     3     4    1
     5     4     5   ar
     6     4    14   ar
     7     5     6   ar
     8     6     7   ar
     9     7     8    2
    10     7     9   ar
    11     9    10   ar
    12     9    14   ar
    13    10    11   ar
    14    11    12   ar
    15    12    13   ar
    16    13    14   ar
    17    15    16    1
    18    16    17    1
    19    17    18    2
    20    17    19   am
    21    19    20    1
    22    19    31    1
    23    20    21    1
    24    21    22    1
    25    22    23    1
    26    22    30    1
    27    23    24   ar
    28    23    29   ar
    29    24    25   ar
    30    25    26   ar
    31    26    27    1
    32    26    28   ar
    33    28    29   ar
    34    30    31    1
    35     3    32    1
    36     3    33    1
    37     6    34    1
    38    10    35    1
    39    11    36    1
    40    12    37    1
    41    13    38    1
    42    15    39    1
    43    16    40    1
    44    16    41    1
    45    20    42    1
    46    20    43    1
    47    21    44    1
    48    21    45    1
    49    24    46    1
    50    25    47    1
    51    28    48    1
    52    29    49    1
    53    30    50    1
    54    30    51    1
    55    31    52    1
    56    31    53    1
@<TRIPOS>MOLECULE
../data/bude_mols_rdkit_confs2/molecule_7.pdb
 53 56 0 0 0
SMALL
GASTEIGER

@<TRIPOS>ATOM
      1  O1        -2.0340   -0.2870    1.5310 O.2     1  UNL1       -0.2754
      2  C1        -2.4560    0.4180    0.6260 C.2     1  UNL1        0.2193
      3  C2        -3.8030    1.0510    0.7100 C.3     1  UNL1        0.0685
      4  C3        -4.7390    0.0380    0.1290 C.ar    1  UNL1        0.0780
      5  N1        -4.2670   -0.8060   -0.8480 N.ar    1  UNL1       -0.1748
      6  N2        -5.0000   -1.7140   -1.4360 N.ar    1  UNL1       -0.2425
      7  C4        -6.2890   -1.7920   -1.0280 C.ar    1  UNL1        0.2725
      8  O2        -7.0510   -2.6600   -1.5700 O.2     1  UNL1       -0.2658
      9  C5        -6.8380   -0.9880   -0.0600 C.ar    1  UNL1        0.0496
     10  C6        -8.1600   -1.0930    0.3080 C.ar    1  UNL1       -0.0487
     11  C7        -8.6870   -0.2630    1.2660 C.ar    1  UNL1       -0.0610
     12  C8        -7.8800    0.6740    1.8560 C.ar    1  UNL1       -0.0611
     13  C9        -6.5670    0.7780    1.4900 C.ar    1  UNL1       -0.0521
     14  C10       -6.0240   -0.0330    0.5420 C.ar    1  UNL1        0.0108
     15  N3        -1.7230    0.6740   -0.5440 N.am    1  UNL1       -0.3064
     16  C11       -0.4110    0.1590   -0.7900 C.3     1  UNL1        0.0883
     17  C12        0.5170    0.7600    0.1920 C.2     1  UNL1        0.2328
     18  O3         0.1340    1.5710    1.0720 O.2     1  UNL1       -0.2739
     19  N4         1.8910    0.4200    0.1340 N.am    1  UNL1       -0.2972
     20  C13        2.7850    1.1070    1.0510 C.3     1  UNL1        0.0305
     21  C14        4.0490    0.3020    1.1940 C.3     1  UNL1        0.0280
     22  N5         4.5880    0.0030   -0.1030 N.pl3   1  UNL1       -0.3269
     23  C15        6.0070   -0.1460   -0.3050 C.ar    1  UNL1        0.0299
     24  C16        6.5400   -0.3970   -1.5400 C.ar    1  UNL1       -0.0379
     25  C17        7.9020   -0.5620   -1.7900 C.ar    1  UNL1       -0.0247
     26  C18        8.7480   -0.4600   -0.7150 C.ar    1  UNL1        0.1235
     27  F1        10.1030   -0.6140   -0.9030 F       1  UNL1       -0.2055
     28  C19        8.2870   -0.2080    0.5540 C.ar    1  UNL1       -0.0247
     29  C20        6.9120   -0.0530    0.7460 C.ar    1  UNL1       -0.0379
     30  C21        3.7420   -0.1740   -1.2750 C.3     1  UNL1        0.0280
     31  C22        2.3510   -0.5660   -0.7990 C.3     1  UNL1        0.0305
     32 H          -3.8294    1.9576    0.1424 H       1  UNL1        0.0423
     33 H          -4.0641    1.3127    1.7141 H       1  UNL1        0.0423
     34 H          -4.6369   -2.3060   -2.1338 H       1  UNL1        0.1921
     35 H          -8.7607   -1.8023   -0.1404 H       1  UNL1        0.0625
     36 H          -9.6791   -0.3438    1.5385 H       1  UNL1        0.0618
     37 H          -8.2643    1.3028    2.5785 H       1  UNL1        0.0618
     38 H          -5.9729    1.4893    1.9440 H       1  UNL1        0.0624
     39 H          -2.1358    1.2407   -1.2351 H       1  UNL1        0.1492
     40 H          -0.1025    0.4144   -1.7822 H       1  UNL1        0.0558
     41 H          -0.4098   -0.9066   -0.6932 H       1  UNL1        0.0558
     42 H           2.3127    1.2069    2.0059 H       1  UNL1        0.0480
     43 H           3.0159    2.0804    0.6714 H       1  UNL1        0.0480
     44 H           3.8316   -0.6115    1.7070 H       1  UNL1        0.0479
     45 H           4.7659    0.8682    1.7512 H       1  UNL1        0.0479
     46 H           5.8912   -0.4690   -2.3393 H       1  UNL1        0.0637
     47 H           8.2572   -0.7521   -2.7401 H       1  UNL1        0.0647
     48 H           8.9419   -0.1348    1.3482 H       1  UNL1        0.0647
     49 H           6.5575    0.1362    1.6966 H       1  UNL1        0.0637
     50 H           4.1429   -0.9457   -1.8985 H       1  UNL1        0.0479
     51 H           3.6982    0.7330   -1.8410 H       1  UNL1        0.0479
     52 H           1.6837   -0.6107   -1.6342 H       1  UNL1        0.0480
     53 H           2.3833   -1.5266   -0.3287 H       1  UNL1        0.0480
@<TRIPOS>BOND
     1     1     2    2
     2     2     3    1
     3     2    15   am
     4     3     4    1
     5     4     5   ar
     6     4    14   ar
     7     5     6   ar
     8     6     7   ar
     9     7     8    2
    10     7     9   ar
    11     9    10   ar
    12     9    14   ar
    13    10    11   ar
    14    11    12   ar
    15    12    13   ar
    16    13    14   ar
    17    15    16    1
    18    16    17    1
    19    17    18    2
    20    17    19   am
    21    19    20    1
    22    19    31    1
    23    20    21    1
    24    21    22    1
    25    22    23    1
    26    22    30    1
    27    23    24   ar
    28    23    29   ar
    29    24    25   ar
    30    25    26   ar
    31    26    27    1
    32    26    28   ar
    33    28    29   ar
    34    30    31    1
    35     3    32    1
    36     3    33    1
    37     6    34    1
    38    10    35    1
    39    11    36    1
    40    12    37    1
    41    13    38    1
    42    15    39    1
    43    16    40    1
    44    16    41    1
    45    20    42    1
    46    20    43    1
    47    21    44    1
    48    21    45    1
    49    24    46    1
    50    25    47    1
    51    28    48    1
    52    29    49    1
    53    30    50    1
    54    30    51    1
    55    31    52    1
    56    31    53    1
@<TRIPOS>MOLECULE
../data/bude_mols_rdkit_confs2/molecule_7.pdb
 53 56 0 0 0
SMALL
GASTEIGER

@<TRIPOS>ATOM
      1  O1         2.5510    0.1160    0.3500 O.2     1  UNL1       -0.2754
      2  C1         2.6460   -0.9860    0.9410 C.2     1  UNL1        0.2193
      3  C2         3.9410   -1.3270    1.5820 C.3     1  UNL1        0.0685
      4  C3         4.9220   -0.2590    1.3920 C.ar    1  UNL1        0.0780
      5  N1         5.2290    0.5860    2.3940 N.ar    1  UNL1       -0.1748
      6  N2         6.1150    1.5380    2.1970 N.ar    1  UNL1       -0.2425
      7  C4         6.7620    1.7450    1.0410 C.ar    1  UNL1        0.2725
      8  O2         7.6040    2.6600    0.8740 O.2     1  UNL1       -0.2658
      9  C5         6.4860    0.9070   -0.0200 C.ar    1  UNL1        0.0496
     10  C6         7.0910    1.0310   -1.2460 C.ar    1  UNL1       -0.0487
     11  C7         6.7730    0.1630   -2.2680 C.ar    1  UNL1       -0.0610
     12  C8         5.8470   -0.8390   -2.0770 C.ar    1  UNL1       -0.0611
     13  C9         5.2320   -0.9700   -0.8420 C.ar    1  UNL1       -0.0521
     14  C10        5.5560   -0.1000    0.1690 C.ar    1  UNL1        0.0108
     15  N3         1.5290   -1.8610    0.9780 N.am    1  UNL1       -0.3064
     16  C11        0.2630   -1.5770    0.3770 C.3     1  UNL1        0.0883
     17  C12       -0.3920   -0.3660    0.9030 C.2     1  UNL1        0.2328
     18  O3         0.1800    0.2960    1.7950 O.2     1  UNL1       -0.2739
     19  N4        -1.6580    0.0090    0.3760 N.am    1  UNL1       -0.2972
     20  C13       -2.3040   -0.7590   -0.6490 C.3     1  UNL1        0.0305
     21  C14       -3.6440   -1.2550   -0.1210 C.3     1  UNL1        0.0280
     22  N5        -4.3690   -0.0540    0.2880 N.pl3   1  UNL1       -0.3269
     23  C15       -5.5970    0.3470   -0.2800 C.ar    1  UNL1        0.0299
     24  C16       -6.4060   -0.5170   -0.9900 C.ar    1  UNL1       -0.0379
     25  C17       -7.6110   -0.1300   -1.5670 C.ar    1  UNL1       -0.0247
     26  C18       -8.0280    1.1770   -1.4310 C.ar    1  UNL1        0.1235
     27  F1        -9.1950    1.6040   -1.9750 F       1  UNL1       -0.2055
     28  C19       -7.2360    2.0540   -0.7270 C.ar    1  UNL1       -0.0247
     29  C20       -6.0280    1.6430   -0.1550 C.ar    1  UNL1       -0.0379
     30  C21       -3.7330    0.7070    1.3560 C.3     1  UNL1        0.0280
     31  C22       -2.3740    1.2000    0.8520 C.3     1  UNL1        0.0305
     32 H           4.3186   -2.2291    1.1479 H       1  UNL1        0.0423
     33 H           3.7768   -1.4537    2.6317 H       1  UNL1        0.0423
     34 H           6.3169    2.1396    2.9497 H       1  UNL1        0.1921
     35 H           7.7866    1.7770   -1.4029 H       1  UNL1        0.0625
     36 H           7.2333    0.2646   -3.1860 H       1  UNL1        0.0618
     37 H           5.6135   -1.4860   -2.8464 H       1  UNL1        0.0618
     38 H           4.5362   -1.7155   -0.6838 H       1  UNL1        0.0624
     39 H           1.6327   -2.7197    1.4483 H       1  UNL1        0.1492
     40 H          -0.3851   -2.4111    0.5475 H       1  UNL1        0.0558
     41 H           0.4459   -1.4032   -0.6628 H       1  UNL1        0.0558
     42 H          -1.6900   -1.5946   -0.9129 H       1  UNL1        0.0480
     43 H          -2.4578   -0.1510   -1.5160 H       1  UNL1        0.0480
     44 H          -3.4988   -1.9073    0.7146 H       1  UNL1        0.0479
     45 H          -4.1814   -1.8116   -0.8601 H       1  UNL1        0.0479
     46 H          -6.1022   -1.4973   -1.0980 H       1  UNL1        0.0637
     47 H          -8.1843   -0.8110   -2.0891 H       1  UNL1        0.0647
     48 H          -7.5392    3.0345   -0.6188 H       1  UNL1        0.0647
     49 H          -5.4539    2.3230    0.3675 H       1  UNL1        0.0637
     50 H          -3.5957    0.0818    2.2134 H       1  UNL1        0.0479
     51 H          -4.3473    1.5384    1.6323 H       1  UNL1        0.0479
     52 H          -2.5059    1.8982    0.0520 H       1  UNL1        0.0480
     53 H          -1.8290    1.7001    1.6251 H       1  UNL1        0.0480
@<TRIPOS>BOND
     1     1     2    2
     2     2     3    1
     3     2    15   am
     4     3     4    1
     5     4     5   ar
     6     4    14   ar
     7     5     6   ar
     8     6     7   ar
     9     7     8    2
    10     7     9   ar
    11     9    10   ar
    12     9    14   ar
    13    10    11   ar
    14    11    12   ar
    15    12    13   ar
    16    13    14   ar
    17    15    16    1
    18    16    17    1
    19    17    18    2
    20    17    19   am
    21    19    20    1
    22    19    31    1
    23    20    21    1
    24    21    22    1
    25    22    23    1
    26    22    30    1
    27    23    24   ar
    28    23    29   ar
    29    24    25   ar
    30    25    26   ar
    31    26    27    1
    32    26    28   ar
    33    28    29   ar
    34    30    31    1
    35     3    32    1
    36     3    33    1
    37     6    34    1
    38    10    35    1
    39    11    36    1
    40    12    37    1
    41    13    38    1
    42    15    39    1
    43    16    40    1
    44    16    41    1
    45    20    42    1
    46    20    43    1
    47    21    44    1
    48    21    45    1
    49    24    46    1
    50    25    47    1
    51    28    48    1
    52    29    49    1
    53    30    50    1
    54    30    51    1
    55    31    52    1
    56    31    53    1
