@<TRIPOS>MOLECULE
../data/bude_mols_rdkit_confs2/molecule_54.pdb
 35 37 0 0 0
SMALL
GASTEIGER

@<TRIPOS>ATOM
      1  N1        -5.0540    1.6410   -1.9230 N.am    1  UNL1       -0.3253
      2  C1        -5.4170    0.5020   -1.1580 C.2     1  UNL1        0.2416
      3  O1        -6.5650    0.0250   -1.3270 O.2     1  UNL1       -0.2704
      4  C2        -4.4860   -0.0940   -0.2080 C.ar    1  UNL1        0.0400
      5  C3        -4.8980   -1.2130    0.5170 C.ar    1  UNL1       -0.0494
      6  C4        -4.0500   -1.8100    1.4270 C.ar    1  UNL1       -0.0576
      7  C5        -2.7890   -1.2950    1.6200 C.ar    1  UNL1       -0.0192
      8  C6        -2.3800   -0.2040    0.9180 C.ar    1  UNL1        0.1326
      9  O2        -1.0840    0.3030    1.1330 O.3     1  UNL1       -0.4236
     10  C7        -0.0540   -0.1990    0.3440 C.ar    1  UNL1        0.3239
     11  N2        -0.2730   -1.1400   -0.5990 N.ar    1  UNL1       -0.2030
     12  C8         0.7180   -1.6290   -1.3640 C.ar    1  UNL1        0.0350
     13  C9         2.0220   -1.1730   -1.2060 C.ar    1  UNL1       -0.0173
     14  C10        2.2520   -0.2150   -0.2470 C.ar    1  UNL1        0.0778
     15  C11        3.5860    0.3230   -0.0090 C.ar    1  UNL1        0.0006
     16  C12        3.7910    1.2880    0.9620 C.ar    1  UNL1       -0.0526
     17  C13        5.0230    1.8220    1.2220 C.ar    1  UNL1       -0.0611
     18  C14        6.1440    1.4020    0.4980 C.ar    1  UNL1       -0.0617
     19  C15        5.9630    0.4430   -0.4740 C.ar    1  UNL1       -0.0611
     20  C16        4.6870   -0.0850   -0.7160 C.ar    1  UNL1       -0.0526
     21  N3         1.2000    0.2310    0.4880 N.ar    1  UNL1       -0.1946
     22  C17       -3.2240    0.3950    0.0080 C.ar    1  UNL1       -0.0071
     23 H          -5.6953    2.0308   -2.5602 H       1  UNL1        0.1453
     24 H          -4.1609    2.0413   -1.8165 H       1  UNL1        0.1453
     25 H          -5.8447   -1.5971    0.3713 H       1  UNL1        0.0625
     26 H          -4.3598   -2.6379    1.9597 H       1  UNL1        0.0619
     27 H          -2.1511   -1.7379    2.2997 H       1  UNL1        0.0654
     28 H           0.5095   -2.3483   -2.0740 H       1  UNL1        0.0832
     29 H           2.7905   -1.5408   -1.7883 H       1  UNL1        0.0654
     30 H           2.9821    1.6176    1.5116 H       1  UNL1        0.0624
     31 H           5.1263    2.5392    1.9568 H       1  UNL1        0.0618
     32 H           7.0779    1.7986    0.6864 H       1  UNL1        0.0618
     33 H           6.7696    0.1119   -1.0261 H       1  UNL1        0.0618
     34 H           4.5733   -0.8027   -1.4488 H       1  UNL1        0.0624
     35 H          -2.9016    1.2225   -0.5176 H       1  UNL1        0.0662
@<TRIPOS>BOND
     1     1     2   am
     2     2     3    2
     3     2     4    1
     4     4     5   ar
     5     4    22   ar
     6     5     6   ar
     7     6     7   ar
     8     7     8   ar
     9     8     9    1
    10     8    22   ar
    11     9    10    1
    12    10    11   ar
    13    10    21   ar
    14    11    12   ar
    15    12    13   ar
    16    13    14   ar
    17    14    15    1
    18    14    21   ar
    19    15    16   ar
    20    15    20   ar
    21    16    17   ar
    22    17    18   ar
    23    18    19   ar
    24    19    20   ar
    25     1    23    1
    26     1    24    1
    27     5    25    1
    28     6    26    1
    29     7    27    1
    30    12    28    1
    31    13    29    1
    32    16    30    1
    33    17    31    1
    34    18    32    1
    35    19    33    1
    36    20    34    1
    37    22    35    1
@<TRIPOS>MOLECULE
../data/bude_mols_rdkit_confs2/molecule_54.pdb
 35 37 0 0 0
SMALL
GASTEIGER

@<TRIPOS>ATOM
      1  N1         6.2040   -1.4300   -0.5040 N.am    1  UNL1       -0.3253
      2  C1         5.1870   -1.0130    0.3880 C.2     1  UNL1        0.2416
      3  O1         5.2470   -1.4220    1.5950 O.2     1  UNL1       -0.2704
      4  C2         4.0810   -0.1500    0.0190 C.ar    1  UNL1        0.0400
      5  C3         3.9370    0.3580   -1.2580 C.ar    1  UNL1       -0.0494
      6  C4         2.8550    1.1840   -1.5630 C.ar    1  UNL1       -0.0576
      7  C5         1.9140    1.5130   -0.6150 C.ar    1  UNL1       -0.0192
      8  C6         2.0510    1.0060    0.6760 C.ar    1  UNL1        0.1326
      9  O2         1.0880    1.3540    1.6090 O.3     1  UNL1       -0.4236
     10  C7        -0.0280    0.5230    1.7240 C.ar    1  UNL1        0.3239
     11  N2        -0.0740   -0.4450    2.6520 N.ar    1  UNL1       -0.2030
     12  C8        -1.1110   -1.2810    2.8210 C.ar    1  UNL1        0.0350
     13  C9        -2.2000   -1.1240    1.9770 C.ar    1  UNL1       -0.0173
     14  C10       -2.1890   -0.1550    1.0270 C.ar    1  UNL1        0.0778
     15  C11       -3.3180    0.0270    0.1310 C.ar    1  UNL1        0.0006
     16  C12       -3.2300    1.0500   -0.8230 C.ar    1  UNL1       -0.0526
     17  C13       -4.2540    1.2980   -1.7170 C.ar    1  UNL1       -0.0611
     18  C14       -5.4030    0.5460   -1.6990 C.ar    1  UNL1       -0.0617
     19  C15       -5.4720   -0.4490   -0.7600 C.ar    1  UNL1       -0.0611
     20  C16       -4.4510   -0.7190    0.1530 C.ar    1  UNL1       -0.0526
     21  N3        -1.0970    0.6510    0.9200 N.ar    1  UNL1       -0.1946
     22  C17        3.1210    0.1970    0.9520 C.ar    1  UNL1       -0.0071
     23 H           6.9271   -2.0177   -0.1861 H       1  UNL1        0.1453
     24 H           6.1882   -1.1324   -1.4423 H       1  UNL1        0.1453
     25 H           4.6303    0.1262   -1.9865 H       1  UNL1        0.0625
     26 H           2.7584    1.5563   -2.5206 H       1  UNL1        0.0619
     27 H           1.1192    2.1256   -0.8559 H       1  UNL1        0.0654
     28 H          -1.0981   -2.0113    3.5500 H       1  UNL1        0.0832
     29 H          -3.0193   -1.7444    2.0714 H       1  UNL1        0.0654
     30 H          -2.3790    1.6327   -0.8587 H       1  UNL1        0.0624
     31 H          -4.1540    2.0585   -2.4074 H       1  UNL1        0.0618
     32 H          -6.1759    0.7217   -2.3599 H       1  UNL1        0.0618
     33 H          -6.3242   -1.0300   -0.7257 H       1  UNL1        0.0618
     34 H          -4.5574   -1.4813    0.8404 H       1  UNL1        0.0624
     35 H           3.2163   -0.1746    1.9101 H       1  UNL1        0.0662
@<TRIPOS>BOND
     1     1     2   am
     2     2     3    2
     3     2     4    1
     4     4     5   ar
     5     4    22   ar
     6     5     6   ar
     7     6     7   ar
     8     7     8   ar
     9     8     9    1
    10     8    22   ar
    11     9    10    1
    12    10    11   ar
    13    10    21   ar
    14    11    12   ar
    15    12    13   ar
    16    13    14   ar
    17    14    15    1
    18    14    21   ar
    19    15    16   ar
    20    15    20   ar
    21    16    17   ar
    22    17    18   ar
    23    18    19   ar
    24    19    20   ar
    25     1    23    1
    26     1    24    1
    27     5    25    1
    28     6    26    1
    29     7    27    1
    30    12    28    1
    31    13    29    1
    32    16    30    1
    33    17    31    1
    34    18    32    1
    35    19    33    1
    36    20    34    1
    37    22    35    1
@<TRIPOS>MOLECULE
../data/bude_mols_rdkit_confs2/molecule_54.pdb
 35 37 0 0 0
SMALL
GASTEIGER

@<TRIPOS>ATOM
      1  N1         6.5800   -0.4900    1.3010 N.am    1  UNL1       -0.3253
      2  C1         5.1770   -0.5320    1.4890 C.2     1  UNL1        0.2416
      3  O1         4.7030   -1.4160    2.2410 O.2     1  UNL1       -0.2704
      4  C2         4.2600    0.3990    0.8550 C.ar    1  UNL1        0.0400
      5  C3         4.7090    1.3940    0.0190 C.ar    1  UNL1       -0.0494
      6  C4         3.8820    2.3020   -0.6070 C.ar    1  UNL1       -0.0576
      7  C5         2.5250    2.1900   -0.3690 C.ar    1  UNL1       -0.0192
      8  C6         2.0270    1.2240    0.4510 C.ar    1  UNL1        0.1326
      9  O2         0.6650    1.1250    0.6790 O.3     1  UNL1       -0.4236
     10  C7        -0.1340    0.3370   -0.1370 C.ar    1  UNL1        0.3239
     11  N2         0.3780   -0.3540   -1.1720 N.ar    1  UNL1       -0.2030
     12  C8        -0.3510   -1.1150   -1.9710 C.ar    1  UNL1        0.0350
     13  C9        -1.7170   -1.1990   -1.7220 C.ar    1  UNL1       -0.0173
     14  C10       -2.2670   -0.5030   -0.6720 C.ar    1  UNL1        0.0778
     15  C11       -3.7010   -0.5780   -0.3940 C.ar    1  UNL1        0.0006
     16  C12       -4.6080   -1.3100   -1.1090 C.ar    1  UNL1       -0.0526
     17  C13       -5.9630   -1.3390   -0.7910 C.ar    1  UNL1       -0.0611
     18  C14       -6.4150   -0.6050    0.2820 C.ar    1  UNL1       -0.0617
     19  C15       -5.5150    0.1510    1.0310 C.ar    1  UNL1       -0.0611
     20  C16       -4.1960    0.1530    0.6890 C.ar    1  UNL1       -0.0526
     21  N3        -1.4490    0.2470    0.0910 N.ar    1  UNL1       -0.1946
     22  C17        2.8970    0.3330    1.0580 C.ar    1  UNL1       -0.0071
     23 H           7.1573   -1.1456    1.7550 H       1  UNL1        0.1453
     24 H           6.9780    0.1948    0.7163 H       1  UNL1        0.1453
     25 H           5.7246    1.4652   -0.1497 H       1  UNL1        0.0625
     26 H           4.2602    3.0348   -1.2274 H       1  UNL1        0.0619
     27 H           1.8760    2.8522   -0.8222 H       1  UNL1        0.0654
     28 H           0.0799   -1.6303   -2.7545 H       1  UNL1        0.0832
     29 H          -2.3169   -1.7833   -2.3250 H       1  UNL1        0.0654
     30 H          -4.2754   -1.8620   -1.9151 H       1  UNL1        0.0624
     31 H          -6.6198   -1.9033   -1.3523 H       1  UNL1        0.0618
     32 H          -7.4165   -0.6144    0.5310 H       1  UNL1        0.0618
     33 H          -5.8446    0.7043    1.8374 H       1  UNL1        0.0618
     34 H          -3.5380    0.7155    1.2509 H       1  UNL1        0.0624
     35 H           2.5158   -0.3988    1.6778 H       1  UNL1        0.0662
@<TRIPOS>BOND
     1     1     2   am
     2     2     3    2
     3     2     4    1
     4     4     5   ar
     5     4    22   ar
     6     5     6   ar
     7     6     7   ar
     8     7     8   ar
     9     8     9    1
    10     8    22   ar
    11     9    10    1
    12    10    11   ar
    13    10    21   ar
    14    11    12   ar
    15    12    13   ar
    16    13    14   ar
    17    14    15    1
    18    14    21   ar
    19    15    16   ar
    20    15    20   ar
    21    16    17   ar
    22    17    18   ar
    23    18    19   ar
    24    19    20   ar
    25     1    23    1
    26     1    24    1
    27     5    25    1
    28     6    26    1
    29     7    27    1
    30    12    28    1
    31    13    29    1
    32    16    30    1
    33    17    31    1
    34    18    32    1
    35    19    33    1
    36    20    34    1
    37    22    35    1
@<TRIPOS>MOLECULE
../data/bude_mols_rdkit_confs2/molecule_54.pdb
 35 37 0 0 0
SMALL
GASTEIGER

@<TRIPOS>ATOM
      1  N1         6.5620   -1.1740   -0.9520 N.am    1  UNL1       -0.3253
      2  C1         5.1690   -1.2810   -1.1530 C.2     1  UNL1        0.2416
      3  O1         4.6270   -2.3490   -1.5900 O.2     1  UNL1       -0.2704
      4  C2         4.2710   -0.1700   -0.8710 C.ar    1  UNL1        0.0400
      5  C3         4.8180    1.0030   -0.3970 C.ar    1  UNL1       -0.0494
      6  C4         4.0060    2.0800   -0.1160 C.ar    1  UNL1       -0.0576
      7  C5         2.6270    2.0010   -0.3050 C.ar    1  UNL1       -0.0192
      8  C6         2.0720    0.8310   -0.7790 C.ar    1  UNL1        0.1326
      9  O2         0.7090    0.6870   -0.9890 O.3     1  UNL1       -0.4236
     10  C7        -0.1180    0.2140    0.0470 C.ar    1  UNL1        0.3239
     11  N2         0.3610   -0.1110    1.2560 N.ar    1  UNL1       -0.2030
     12  C8        -0.4450   -0.5580    2.2230 C.ar    1  UNL1        0.0350
     13  C9        -1.8080   -0.6740    1.9250 C.ar    1  UNL1       -0.0173
     14  C10       -2.3150   -0.3470    0.6990 C.ar    1  UNL1        0.0778
     15  C11       -3.7410   -0.4750    0.4050 C.ar    1  UNL1        0.0006
     16  C12       -4.6770   -0.9120    1.2830 C.ar    1  UNL1       -0.0526
     17  C13       -6.0050   -0.9950    0.9020 C.ar    1  UNL1       -0.0611
     18  C14       -6.4580   -0.6520   -0.3510 C.ar    1  UNL1       -0.0617
     19  C15       -5.4950   -0.2070   -1.2390 C.ar    1  UNL1       -0.0611
     20  C16       -4.1830   -0.1220   -0.8710 C.ar    1  UNL1       -0.0526
     21  N3        -1.4470    0.0960   -0.2290 N.ar    1  UNL1       -0.1946
     22  C17        2.9090   -0.2400   -1.0550 C.ar    1  UNL1       -0.0071
     23 H           7.1482   -1.9397   -1.1502 H       1  UNL1        0.1453
     24 H           6.9474   -0.3336   -0.6136 H       1  UNL1        0.1453
     25 H           5.8373    1.0746   -0.2524 H       1  UNL1        0.0625
     26 H           4.4232    2.9549    0.2383 H       1  UNL1        0.0619
     27 H           2.0259    2.8123   -0.0917 H       1  UNL1        0.0654
     28 H          -0.0770   -0.8082    3.1541 H       1  UNL1        0.0832
     29 H          -2.4510   -1.0178    2.6553 H       1  UNL1        0.0654
     30 H          -4.3983   -1.1837    2.2388 H       1  UNL1        0.0624
     31 H          -6.6919   -1.3321    1.5946 H       1  UNL1        0.0618
     32 H          -7.4539   -0.7223   -0.6121 H       1  UNL1        0.0618
     33 H          -5.7728    0.0651   -2.1949 H       1  UNL1        0.0618
     34 H          -3.4935    0.2153   -1.5609 H       1  UNL1        0.0624
     35 H           2.4973   -1.1173   -1.4096 H       1  UNL1        0.0662
@<TRIPOS>BOND
     1     1     2   am
     2     2     3    2
     3     2     4    1
     4     4     5   ar
     5     4    22   ar
     6     5     6   ar
     7     6     7   ar
     8     7     8   ar
     9     8     9    1
    10     8    22   ar
    11     9    10    1
    12    10    11   ar
    13    10    21   ar
    14    11    12   ar
    15    12    13   ar
    16    13    14   ar
    17    14    15    1
    18    14    21   ar
    19    15    16   ar
    20    15    20   ar
    21    16    17   ar
    22    17    18   ar
    23    18    19   ar
    24    19    20   ar
    25     1    23    1
    26     1    24    1
    27     5    25    1
    28     6    26    1
    29     7    27    1
    30    12    28    1
    31    13    29    1
    32    16    30    1
    33    17    31    1
    34    18    32    1
    35    19    33    1
    36    20    34    1
    37    22    35    1
@<TRIPOS>MOLECULE
../data/bude_mols_rdkit_confs2/molecule_54.pdb
 35 37 0 0 0
SMALL
GASTEIGER

@<TRIPOS>ATOM
      1  N1         5.0830    1.3680   -0.2910 N.am    1  UNL1       -0.3253
      2  C1         5.4450    0.0010   -0.1700 C.2     1  UNL1        0.2416
      3  O1         6.6530   -0.3130   -0.1750 O.2     1  UNL1       -0.2704
      4  C2         4.3980   -1.0220   -0.0400 C.ar    1  UNL1        0.0400
      5  C3         4.7630   -2.3260    0.0750 C.ar    1  UNL1       -0.0494
      6  C4         3.7830   -3.2930    0.1980 C.ar    1  UNL1       -0.0576
      7  C5         2.4550   -2.9260    0.2020 C.ar    1  UNL1       -0.0192
      8  C6         2.0510   -1.5890    0.0850 C.ar    1  UNL1        0.1326
      9  O2         0.7270   -1.3430    0.1000 O.3     1  UNL1       -0.4236
     10  C7         0.0410   -0.1580    0.0060 C.ar    1  UNL1        0.3239
     11  N2         0.6170    1.0390   -0.1260 N.ar    1  UNL1       -0.2030
     12  C8        -0.0530    2.1930   -0.2180 C.ar    1  UNL1        0.0350
     13  C9        -1.4530    2.1110   -0.1690 C.ar    1  UNL1       -0.0173
     14  C10       -2.0900    0.9050   -0.0330 C.ar    1  UNL1        0.0778
     15  C11       -3.5390    0.7770    0.0220 C.ar    1  UNL1        0.0006
     16  C12       -4.3790    1.8480   -0.0560 C.ar    1  UNL1       -0.0526
     17  C13       -5.7630    1.7250   -0.0030 C.ar    1  UNL1       -0.0611
     18  C14       -6.3350    0.4890    0.1330 C.ar    1  UNL1       -0.0617
     19  C15       -5.4910   -0.5980    0.2130 C.ar    1  UNL1       -0.0611
     20  C16       -4.1250   -0.4890    0.1620 C.ar    1  UNL1       -0.0526
     21  N3        -1.3060   -0.2110    0.0510 N.ar    1  UNL1       -0.1946
     22  C17        3.0610   -0.6710   -0.0340 C.ar    1  UNL1       -0.0071
     23 H           5.7815    2.0563   -0.3783 H       1  UNL1        0.1453
     24 H           4.1334    1.6279   -0.2876 H       1  UNL1        0.1453
     25 H           5.7603   -2.5912    0.0705 H       1  UNL1        0.0625
     26 H           4.0453   -4.2872    0.2866 H       1  UNL1        0.0619
     27 H           1.7346   -3.6591    0.2941 H       1  UNL1        0.0654
     28 H           0.4345    3.0969   -0.3198 H       1  UNL1        0.0832
     29 H          -2.0135    2.9749   -0.2366 H       1  UNL1        0.0654
     30 H          -3.9703    2.7900   -0.1587 H       1  UNL1        0.0624
     31 H          -6.3587    2.5653   -0.0662 H       1  UNL1        0.0618
     32 H          -7.3599    0.3751    0.1741 H       1  UNL1        0.0618
     33 H          -5.9063   -1.5371    0.3160 H       1  UNL1        0.0618
     34 H          -3.5331   -1.3320    0.2261 H       1  UNL1        0.0624
     35 H           2.8126    0.3267   -0.1231 H       1  UNL1        0.0662
@<TRIPOS>BOND
     1     1     2   am
     2     2     3    2
     3     2     4    1
     4     4     5   ar
     5     4    22   ar
     6     5     6   ar
     7     6     7   ar
     8     7     8   ar
     9     8     9    1
    10     8    22   ar
    11     9    10    1
    12    10    11   ar
    13    10    21   ar
    14    11    12   ar
    15    12    13   ar
    16    13    14   ar
    17    14    15    1
    18    14    21   ar
    19    15    16   ar
    20    15    20   ar
    21    16    17   ar
    22    17    18   ar
    23    18    19   ar
    24    19    20   ar
    25     1    23    1
    26     1    24    1
    27     5    25    1
    28     6    26    1
    29     7    27    1
    30    12    28    1
    31    13    29    1
    32    16    30    1
    33    17    31    1
    34    18    32    1
    35    19    33    1
    36    20    34    1
    37    22    35    1
@<TRIPOS>MOLECULE
../data/bude_mols_rdkit_confs2/molecule_54.pdb
 35 37 0 0 0
SMALL
GASTEIGER

@<TRIPOS>ATOM
      1  N1         6.4620    0.1000   -0.6840 N.am    1  UNL1       -0.3253
      2  C1         5.4030    0.5510    0.1330 C.2     1  UNL1        0.2416
      3  O1         5.5320    1.6320    0.7570 O.2     1  UNL1       -0.2704
      4  C2         4.1930   -0.2200    0.2470 C.ar    1  UNL1        0.0400
      5  C3         4.0230   -1.4140   -0.4330 C.ar    1  UNL1       -0.0494
      6  C4         2.8810   -2.1470   -0.3290 C.ar    1  UNL1       -0.0576
      7  C5         1.8510   -1.7110    0.4670 C.ar    1  UNL1       -0.0192
      8  C6         1.9580   -0.5300    1.1710 C.ar    1  UNL1        0.1326
      9  O2         0.8920   -0.1500    1.9490 O.3     1  UNL1       -0.4236
     10  C7        -0.1600    0.6300    1.5160 C.ar    1  UNL1        0.3239
     11  N2        -0.1200    1.9470    1.7380 N.ar    1  UNL1       -0.2030
     12  C8        -1.0900    2.7710    1.3550 C.ar    1  UNL1        0.0350
     13  C9        -2.1810    2.2190    0.6990 C.ar    1  UNL1       -0.0173
     14  C10       -2.2570    0.8720    0.4530 C.ar    1  UNL1        0.0778
     15  C11       -3.3810    0.2340   -0.2330 C.ar    1  UNL1        0.0006
     16  C12       -3.3840   -1.1450   -0.4440 C.ar    1  UNL1       -0.0526
     17  C13       -4.4320   -1.7730   -1.0880 C.ar    1  UNL1       -0.0611
     18  C14       -5.5170   -1.0520   -1.5460 C.ar    1  UNL1       -0.0617
     19  C15       -5.5240    0.3060   -1.3430 C.ar    1  UNL1       -0.0611
     20  C16       -4.4590    0.9400   -0.6890 C.ar    1  UNL1       -0.0526
     21  N3        -1.2090    0.1070    0.8860 N.ar    1  UNL1       -0.1946
     22  C17        3.1280    0.1880    1.0430 C.ar    1  UNL1       -0.0071
     23 H           7.2873    0.6316   -0.7581 H       1  UNL1        0.1453
     24 H           6.3753   -0.7462   -1.1797 H       1  UNL1        0.1453
     25 H           4.7854   -1.7586   -1.0371 H       1  UNL1        0.0625
     26 H           2.7891   -3.0331   -0.8500 H       1  UNL1        0.0619
     27 H           0.9882   -2.2725    0.5393 H       1  UNL1        0.0654
     28 H          -1.0337    3.7849    1.5389 H       1  UNL1        0.0832
     29 H          -2.9501    2.8340    0.3903 H       1  UNL1        0.0654
     30 H          -2.5857   -1.7082   -0.1116 H       1  UNL1        0.0624
     31 H          -4.4038   -2.7950   -1.2288 H       1  UNL1        0.0618
     32 H          -6.3005   -1.5206   -2.0273 H       1  UNL1        0.0618
     33 H          -6.3236    0.8668   -1.6763 H       1  UNL1        0.0618
     34 H          -4.4892    1.9620   -0.5486 H       1  UNL1        0.0624
     35 H           3.2182    1.0738    1.5647 H       1  UNL1        0.0662
@<TRIPOS>BOND
     1     1     2   am
     2     2     3    2
     3     2     4    1
     4     4     5   ar
     5     4    22   ar
     6     5     6   ar
     7     6     7   ar
     8     7     8   ar
     9     8     9    1
    10     8    22   ar
    11     9    10    1
    12    10    11   ar
    13    10    21   ar
    14    11    12   ar
    15    12    13   ar
    16    13    14   ar
    17    14    15    1
    18    14    21   ar
    19    15    16   ar
    20    15    20   ar
    21    16    17   ar
    22    17    18   ar
    23    18    19   ar
    24    19    20   ar
    25     1    23    1
    26     1    24    1
    27     5    25    1
    28     6    26    1
    29     7    27    1
    30    12    28    1
    31    13    29    1
    32    16    30    1
    33    17    31    1
    34    18    32    1
    35    19    33    1
    36    20    34    1
    37    22    35    1
@<TRIPOS>MOLECULE
../data/bude_mols_rdkit_confs2/molecule_54.pdb
 35 37 0 0 0
SMALL
GASTEIGER

@<TRIPOS>ATOM
      1  N1         6.5330   -1.0980    0.5970 N.am    1  UNL1       -0.3253
      2  C1         5.1270   -1.1570    0.5720 C.2     1  UNL1        0.2416
      3  O1         4.5400   -2.2030    0.9050 O.2     1  UNL1       -0.2704
      4  C2         4.3680    0.0030    0.1580 C.ar    1  UNL1        0.0400
      5  C3         5.0040    1.1560   -0.2100 C.ar    1  UNL1       -0.0494
      6  C4         4.2460    2.2360   -0.5970 C.ar    1  UNL1       -0.0576
      7  C5         2.8780    2.2050   -0.6300 C.ar    1  UNL1       -0.0192
      8  C6         2.1980    1.0380   -0.2590 C.ar    1  UNL1        0.1326
      9  O2         0.8470    1.0850   -0.3170 O.3     1  UNL1       -0.4236
     10  C7        -0.1100    0.1590   -0.0360 C.ar    1  UNL1        0.3239
     11  N2         0.2340   -1.0650    0.3870 N.ar    1  UNL1       -0.2030
     12  C8        -0.6880   -1.9980    0.6720 C.ar    1  UNL1        0.0350
     13  C9        -2.0250   -1.6670    0.5180 C.ar    1  UNL1       -0.0173
     14  C10       -2.4160   -0.4230    0.0870 C.ar    1  UNL1        0.0778
     15  C11       -3.8140   -0.0640   -0.0770 C.ar    1  UNL1        0.0006
     16  C12       -4.8400   -0.9360    0.1840 C.ar    1  UNL1       -0.0526
     17  C13       -6.1610   -0.5060   -0.0030 C.ar    1  UNL1       -0.0611
     18  C14       -6.4640    0.7590   -0.4380 C.ar    1  UNL1       -0.0617
     19  C15       -5.4340    1.6390   -0.7020 C.ar    1  UNL1       -0.0611
     20  C16       -4.1350    1.2220   -0.5200 C.ar    1  UNL1       -0.0526
     21  N3        -1.4410    0.4660   -0.1810 N.ar    1  UNL1       -0.1946
     22  C17        2.9670   -0.0310    0.1250 C.ar    1  UNL1       -0.0071
     23 H           7.0538   -1.8848    0.8780 H       1  UNL1        0.1453
     24 H           6.9957   -0.2699    0.3335 H       1  UNL1        0.1453
     25 H           6.0343    1.2147   -0.1975 H       1  UNL1        0.0625
     26 H           4.7282    3.1054   -0.8739 H       1  UNL1        0.0619
     27 H           2.3488    3.0395   -0.9275 H       1  UNL1        0.0654
     28 H          -0.4087   -2.9368    0.9971 H       1  UNL1        0.0832
     29 H          -2.7456   -2.3738    0.7328 H       1  UNL1        0.0654
     30 H          -4.6425   -1.8940    0.5130 H       1  UNL1        0.0624
     31 H          -6.9318   -1.1636    0.1933 H       1  UNL1        0.0618
     32 H          -7.4464    1.0482   -0.5659 H       1  UNL1        0.0618
     33 H          -5.6350    2.5962   -1.0312 H       1  UNL1        0.0618
     34 H          -3.3688    1.8843   -0.7182 H       1  UNL1        0.0624
     35 H           2.4907   -0.9032    0.4033 H       1  UNL1        0.0662
@<TRIPOS>BOND
     1     1     2   am
     2     2     3    2
     3     2     4    1
     4     4     5   ar
     5     4    22   ar
     6     5     6   ar
     7     6     7   ar
     8     7     8   ar
     9     8     9    1
    10     8    22   ar
    11     9    10    1
    12    10    11   ar
    13    10    21   ar
    14    11    12   ar
    15    12    13   ar
    16    13    14   ar
    17    14    15    1
    18    14    21   ar
    19    15    16   ar
    20    15    20   ar
    21    16    17   ar
    22    17    18   ar
    23    18    19   ar
    24    19    20   ar
    25     1    23    1
    26     1    24    1
    27     5    25    1
    28     6    26    1
    29     7    27    1
    30    12    28    1
    31    13    29    1
    32    16    30    1
    33    17    31    1
    34    18    32    1
    35    19    33    1
    36    20    34    1
    37    22    35    1
@<TRIPOS>MOLECULE
../data/bude_mols_rdkit_confs2/molecule_54.pdb
 35 37 0 0 0
SMALL
GASTEIGER

@<TRIPOS>ATOM
      1  N1         5.4080    0.9530   -1.2700 N.am    1  UNL1       -0.3253
      2  C1         5.5470    0.3880    0.0210 C.2     1  UNL1        0.2416
      3  O1         6.6830    0.0010    0.3780 O.2     1  UNL1       -0.2704
      4  C2         4.4250    0.2530    0.9160 C.ar    1  UNL1        0.0400
      5  C3         4.5770   -0.2980    2.1650 C.ar    1  UNL1       -0.0494
      6  C4         3.5260   -0.4410    3.0420 C.ar    1  UNL1       -0.0576
      7  C5         2.2710   -0.0180    2.6590 C.ar    1  UNL1       -0.0192
      8  C6         2.0930    0.5380    1.4100 C.ar    1  UNL1        0.1326
      9  O2         0.8200    0.9480    1.0660 O.3     1  UNL1       -0.4236
     10  C7        -0.0510    0.0390    0.4320 C.ar    1  UNL1        0.3239
     11  N2         0.3380   -1.2140    0.1590 N.ar    1  UNL1       -0.2030
     12  C8        -0.4450   -2.1220   -0.4420 C.ar    1  UNL1        0.0350
     13  C9        -1.7370   -1.7250   -0.7970 C.ar    1  UNL1       -0.0173
     14  C10       -2.1580   -0.4440   -0.5260 C.ar    1  UNL1        0.0778
     15  C11       -3.5040    0.0040   -0.8850 C.ar    1  UNL1        0.0006
     16  C12       -3.8680    1.3090   -0.5840 C.ar    1  UNL1       -0.0526
     17  C13       -5.1230    1.7960   -0.8950 C.ar    1  UNL1       -0.0611
     18  C14       -6.0680    0.9900   -1.5230 C.ar    1  UNL1       -0.0617
     19  C15       -5.7110   -0.3070   -1.8230 C.ar    1  UNL1       -0.0611
     20  C16       -4.4470   -0.7670   -1.5000 C.ar    1  UNL1       -0.0526
     21  N3        -1.2940    0.4050    0.0850 N.ar    1  UNL1       -0.1946
     22  C17        3.1690    0.6680    0.5510 C.ar    1  UNL1       -0.0071
     23 H           6.1924    1.0324   -1.8596 H       1  UNL1        0.1453
     24 H           4.5270    1.2664   -1.5779 H       1  UNL1        0.1453
     25 H           5.5142   -0.6166    2.4567 H       1  UNL1        0.0625
     26 H           3.6753   -0.8592    3.9736 H       1  UNL1        0.0619
     27 H           1.4704   -0.1168    3.3027 H       1  UNL1        0.0654
     28 H          -0.1063   -3.0775   -0.6350 H       1  UNL1        0.0832
     29 H          -2.3737   -2.3914   -1.2614 H       1  UNL1        0.0654
     30 H          -3.1869    1.9287   -0.1181 H       1  UNL1        0.0624
     31 H          -5.3631    2.7714   -0.6583 H       1  UNL1        0.0618
     32 H          -7.0058    1.3519   -1.7565 H       1  UNL1        0.0618
     33 H          -6.3858   -0.9342   -2.2880 H       1  UNL1        0.0618
     34 H          -4.2051   -1.7421   -1.7360 H       1  UNL1        0.0624
     35 H           3.0247    1.0849   -0.3819 H       1  UNL1        0.0662
@<TRIPOS>BOND
     1     1     2   am
     2     2     3    2
     3     2     4    1
     4     4     5   ar
     5     4    22   ar
     6     5     6   ar
     7     6     7   ar
     8     7     8   ar
     9     8     9    1
    10     8    22   ar
    11     9    10    1
    12    10    11   ar
    13    10    21   ar
    14    11    12   ar
    15    12    13   ar
    16    13    14   ar
    17    14    15    1
    18    14    21   ar
    19    15    16   ar
    20    15    20   ar
    21    16    17   ar
    22    17    18   ar
    23    18    19   ar
    24    19    20   ar
    25     1    23    1
    26     1    24    1
    27     5    25    1
    28     6    26    1
    29     7    27    1
    30    12    28    1
    31    13    29    1
    32    16    30    1
    33    17    31    1
    34    18    32    1
    35    19    33    1
    36    20    34    1
    37    22    35    1
@<TRIPOS>MOLECULE
../data/bude_mols_rdkit_confs2/molecule_54.pdb
 35 37 0 0 0
SMALL
GASTEIGER

@<TRIPOS>ATOM
      1  N1         6.4800    1.1650    0.7410 N.am    1  UNL1       -0.3253
      2  C1         5.5030    0.8300   -0.2250 C.2     1  UNL1        0.2416
      3  O1         5.7540    1.0110   -1.4490 O.2     1  UNL1       -0.2704
      4  C2         4.2000    0.2760    0.1480 C.ar    1  UNL1        0.0400
      5  C3         3.8900    0.0450    1.4720 C.ar    1  UNL1       -0.0494
      6  C4         2.6640   -0.4730    1.7900 C.ar    1  UNL1       -0.0576
      7  C5         1.7290   -0.7690    0.8250 C.ar    1  UNL1       -0.0192
      8  C6         2.0280   -0.5420   -0.4970 C.ar    1  UNL1        0.1326
      9  O2         1.1160   -0.8260   -1.5010 O.3     1  UNL1       -0.4236
     10  C7        -0.1370   -1.3490   -1.1650 C.ar    1  UNL1        0.3239
     11  N2        -0.4000   -2.6650   -1.1740 N.ar    1  UNL1       -0.2030
     12  C8        -1.6310   -3.0720   -0.8360 C.ar    1  UNL1        0.0350
     13  C9        -2.6500   -2.1760   -0.4750 C.ar    1  UNL1       -0.0173
     14  C10       -2.3500   -0.8530   -0.4760 C.ar    1  UNL1        0.0778
     15  C11       -3.3080    0.1820   -0.1250 C.ar    1  UNL1        0.0006
     16  C12       -2.9320    1.5290   -0.1470 C.ar    1  UNL1       -0.0526
     17  C13       -3.8040    2.5400    0.1780 C.ar    1  UNL1       -0.0611
     18  C14       -5.1030    2.2710    0.5440 C.ar    1  UNL1       -0.0617
     19  C15       -5.4790    0.9440    0.5670 C.ar    1  UNL1       -0.0611
     20  C16       -4.6090   -0.0730    0.2430 C.ar    1  UNL1       -0.0526
     21  N3        -1.1020   -0.4980   -0.8230 N.ar    1  UNL1       -0.1946
     22  C17        3.2610   -0.0220   -0.8130 C.ar    1  UNL1       -0.0071
     23 H           7.3465    1.5358    0.4566 H       1  UNL1        0.1453
     24 H           6.2936    1.0274    1.6979 H       1  UNL1        0.1453
     25 H           4.5744    0.2602    2.2138 H       1  UNL1        0.0625
     26 H           2.4343   -0.6464    2.7811 H       1  UNL1        0.0619
     27 H           0.8111   -1.1581    1.0916 H       1  UNL1        0.0654
     28 H          -1.8382   -4.0830   -0.8412 H       1  UNL1        0.0832
     29 H          -3.5917   -2.5113   -0.2186 H       1  UNL1        0.0654
     30 H          -1.9660    1.7721   -0.4167 H       1  UNL1        0.0624
     31 H          -3.4788    3.5189    0.1470 H       1  UNL1        0.0618
     32 H          -5.7635    3.0251    0.7892 H       1  UNL1        0.0618
     33 H          -6.4461    0.7051    0.8364 H       1  UNL1        0.0618
     34 H          -4.9407   -1.0497    0.2770 H       1  UNL1        0.0624
     35 H           3.4901    0.1507   -1.8043 H       1  UNL1        0.0662
@<TRIPOS>BOND
     1     1     2   am
     2     2     3    2
     3     2     4    1
     4     4     5   ar
     5     4    22   ar
     6     5     6   ar
     7     6     7   ar
     8     7     8   ar
     9     8     9    1
    10     8    22   ar
    11     9    10    1
    12    10    11   ar
    13    10    21   ar
    14    11    12   ar
    15    12    13   ar
    16    13    14   ar
    17    14    15    1
    18    14    21   ar
    19    15    16   ar
    20    15    20   ar
    21    16    17   ar
    22    17    18   ar
    23    18    19   ar
    24    19    20   ar
    25     1    23    1
    26     1    24    1
    27     5    25    1
    28     6    26    1
    29     7    27    1
    30    12    28    1
    31    13    29    1
    32    16    30    1
    33    17    31    1
    34    18    32    1
    35    19    33    1
    36    20    34    1
    37    22    35    1
@<TRIPOS>MOLECULE
../data/bude_mols_rdkit_confs2/molecule_54.pdb
 35 37 0 0 0
SMALL
GASTEIGER

@<TRIPOS>ATOM
      1  N1         5.3610   -1.9360   -1.4500 N.am    1  UNL1       -0.3253
      2  C1         5.7610   -0.7450   -0.8100 C.2     1  UNL1        0.2416
      3  O1         6.9390   -0.3670   -0.6850 O.2     1  UNL1       -0.2704
      4  C2         4.7060    0.1200   -0.2450 C.ar    1  UNL1        0.0400
      5  C3         5.0200    1.3000    0.3960 C.ar    1  UNL1       -0.0494
      6  C4         4.0590    2.1140    0.9250 C.ar    1  UNL1       -0.0576
      7  C5         2.7360    1.7670    0.8280 C.ar    1  UNL1       -0.0192
      8  C6         2.3800    0.5960    0.1960 C.ar    1  UNL1        0.1326
      9  O2         1.1230    0.1340    0.0300 O.3     1  UNL1       -0.4236
     10  C7        -0.0870    0.6330    0.4000 C.ar    1  UNL1        0.3239
     11  N2        -0.2960    1.7780    1.0600 N.ar    1  UNL1       -0.2030
     12  C8        -1.4790    2.2560    1.4170 C.ar    1  UNL1        0.0350
     13  C9        -2.6100    1.4990    1.0760 C.ar    1  UNL1       -0.0173
     14  C10       -2.4590    0.3130    0.3970 C.ar    1  UNL1        0.0778
     15  C11       -3.6210   -0.4820    0.0370 C.ar    1  UNL1        0.0006
     16  C12       -4.8950   -0.0990    0.3470 C.ar    1  UNL1       -0.0526
     17  C13       -6.0010   -0.8880   -0.0140 C.ar    1  UNL1       -0.0611
     18  C14       -5.8250   -2.0570   -0.6850 C.ar    1  UNL1       -0.0617
     19  C15       -4.5470   -2.4600   -1.0070 C.ar    1  UNL1       -0.0611
     20  C16       -3.4620   -1.6720   -0.6440 C.ar    1  UNL1       -0.0526
     21  N3        -1.2070   -0.0710    0.0880 N.ar    1  UNL1       -0.1946
     22  C17        3.3940   -0.2140   -0.3350 C.ar    1  UNL1       -0.0071
     23 H           6.0371   -2.5371   -1.8384 H       1  UNL1        0.1453
     24 H           4.4056   -2.1665   -1.5085 H       1  UNL1        0.1453
     25 H           6.0109    1.5764    0.4785 H       1  UNL1        0.0625
     26 H           4.3289    2.9907    1.3979 H       1  UNL1        0.0619
     27 H           2.0092    2.3813    1.2273 H       1  UNL1        0.0654
     28 H          -1.5651    3.1497    1.9258 H       1  UNL1        0.0832
     29 H          -3.5523    1.8314    1.3340 H       1  UNL1        0.0654
     30 H          -5.0484    0.7858    0.8555 H       1  UNL1        0.0624
     31 H          -6.9538   -0.5774    0.2323 H       1  UNL1        0.0618
     32 H          -6.6378   -2.6352   -0.9498 H       1  UNL1        0.0618
     33 H          -4.3964   -3.3448   -1.5164 H       1  UNL1        0.0618
     34 H          -2.5101   -1.9853   -0.8905 H       1  UNL1        0.0624
     35 H           3.1339   -1.0927   -0.8097 H       1  UNL1        0.0662
@<TRIPOS>BOND
     1     1     2   am
     2     2     3    2
     3     2     4    1
     4     4     5   ar
     5     4    22   ar
     6     5     6   ar
     7     6     7   ar
     8     7     8   ar
     9     8     9    1
    10     8    22   ar
    11     9    10    1
    12    10    11   ar
    13    10    21   ar
    14    11    12   ar
    15    12    13   ar
    16    13    14   ar
    17    14    15    1
    18    14    21   ar
    19    15    16   ar
    20    15    20   ar
    21    16    17   ar
    22    17    18   ar
    23    18    19   ar
    24    19    20   ar
    25     1    23    1
    26     1    24    1
    27     5    25    1
    28     6    26    1
    29     7    27    1
    30    12    28    1
    31    13    29    1
    32    16    30    1
    33    17    31    1
    34    18    32    1
    35    19    33    1
    36    20    34    1
    37    22    35    1
@<TRIPOS>MOLECULE
../data/bude_mols_rdkit_confs2/molecule_54.pdb
 35 37 0 0 0
SMALL
GASTEIGER

@<TRIPOS>ATOM
      1  N1         5.5990    0.4910   -1.1860 N.am    1  UNL1       -0.3253
      2  C1         5.2020   -0.7270   -0.5720 C.2     1  UNL1        0.2416
      3  O1         5.8600   -1.7800   -0.6890 O.2     1  UNL1       -0.2704
      4  C2         3.9770   -0.7580    0.2290 C.ar    1  UNL1        0.0400
      5  C3         3.5900   -1.8990    0.8970 C.ar    1  UNL1       -0.0494
      6  C4         2.4450   -1.9680    1.6590 C.ar    1  UNL1       -0.0576
      7  C5         1.6580   -0.8410    1.7520 C.ar    1  UNL1       -0.0192
      8  C6         2.0220    0.3130    1.0930 C.ar    1  UNL1        0.1326
      9  O2         1.2240    1.4730    1.1810 O.3     1  UNL1       -0.4236
     10  C7         0.2390    1.5560    0.1800 C.ar    1  UNL1        0.3239
     11  N2         0.5170    2.2640   -0.9280 N.ar    1  UNL1       -0.2030
     12  C8        -0.4200    2.3510   -1.8960 C.ar    1  UNL1        0.0350
     13  C9        -1.6360    1.7000   -1.7040 C.ar    1  UNL1       -0.0173
     14  C10       -1.9110    0.9810   -0.5740 C.ar    1  UNL1        0.0778
     15  C11       -3.1630    0.2800   -0.3160 C.ar    1  UNL1        0.0006
     16  C12       -3.3660   -0.4250    0.8620 C.ar    1  UNL1       -0.0526
     17  C13       -4.5170   -1.1040    1.1650 C.ar    1  UNL1       -0.0611
     18  C14       -5.5290   -1.0780    0.2320 C.ar    1  UNL1       -0.0617
     19  C15       -5.4070   -0.4030   -0.9620 C.ar    1  UNL1       -0.0611
     20  C16       -4.2110    0.2700   -1.2100 C.ar    1  UNL1       -0.0526
     21  N3        -0.9500    0.9210    0.3660 N.ar    1  UNL1       -0.1946
     22  C17        3.1780    0.3530    0.3340 C.ar    1  UNL1       -0.0071
     23 H           6.4208    0.5245   -1.7271 H       1  UNL1        0.1453
     24 H           5.0523    1.3016   -1.0704 H       1  UNL1        0.1453
     25 H           4.1845   -2.7393    0.8231 H       1  UNL1        0.0625
     26 H           2.1838   -2.8393    2.1466 H       1  UNL1        0.0619
     27 H           0.7942   -0.8612    2.3163 H       1  UNL1        0.0654
     28 H          -0.2392    2.8878   -2.7587 H       1  UNL1        0.0832
     29 H          -2.3555    1.7625   -2.4412 H       1  UNL1        0.0654
     30 H          -2.6008   -0.4388    1.5544 H       1  UNL1        0.0624
     31 H          -4.6210   -1.6140    2.0561 H       1  UNL1        0.0618
     32 H          -6.4074   -1.5806    0.4340 H       1  UNL1        0.0618
     33 H          -6.1755   -0.3954   -1.6508 H       1  UNL1        0.0618
     34 H          -4.1068    0.7817   -2.1001 H       1  UNL1        0.0624
     35 H           3.4408    1.2226   -0.1557 H       1  UNL1        0.0662
@<TRIPOS>BOND
     1     1     2   am
     2     2     3    2
     3     2     4    1
     4     4     5   ar
     5     4    22   ar
     6     5     6   ar
     7     6     7   ar
     8     7     8   ar
     9     8     9    1
    10     8    22   ar
    11     9    10    1
    12    10    11   ar
    13    10    21   ar
    14    11    12   ar
    15    12    13   ar
    16    13    14   ar
    17    14    15    1
    18    14    21   ar
    19    15    16   ar
    20    15    20   ar
    21    16    17   ar
    22    17    18   ar
    23    18    19   ar
    24    19    20   ar
    25     1    23    1
    26     1    24    1
    27     5    25    1
    28     6    26    1
    29     7    27    1
    30    12    28    1
    31    13    29    1
    32    16    30    1
    33    17    31    1
    34    18    32    1
    35    19    33    1
    36    20    34    1
    37    22    35    1
@<TRIPOS>MOLECULE
../data/bude_mols_rdkit_confs2/molecule_54.pdb
 35 37 0 0 0
SMALL
GASTEIGER

@<TRIPOS>ATOM
      1  N1         6.4850    1.7540   -0.2030 N.am    1  UNL1       -0.3253
      2  C1         5.5370    1.2230    0.7090 C.2     1  UNL1        0.2416
      3  O1         5.8060    1.2250    1.9380 O.2     1  UNL1       -0.2704
      4  C2         4.2790    0.6920    0.1860 C.ar    1  UNL1        0.0400
      5  C3         4.0070    0.7060   -1.1490 C.ar    1  UNL1       -0.0494
      6  C4         2.8150    0.2030   -1.6400 C.ar    1  UNL1       -0.0576
      7  C5         1.8570   -0.3330   -0.7800 C.ar    1  UNL1       -0.0192
      8  C6         2.1260   -0.3510    0.5740 C.ar    1  UNL1        0.1326
      9  O2         1.1940   -0.8790    1.4660 O.3     1  UNL1       -0.4236
     10  C7        -0.0190   -1.3910    1.0140 C.ar    1  UNL1        0.3239
     11  N2        -0.1510   -2.7070    0.7840 N.ar    1  UNL1       -0.2030
     12  C8        -1.2760   -3.2770    0.3510 C.ar    1  UNL1        0.0350
     13  C9        -2.3690   -2.4260    0.1310 C.ar    1  UNL1       -0.0173
     14  C10       -2.2770   -1.0740    0.3540 C.ar    1  UNL1        0.0778
     15  C11       -3.4090   -0.1910    0.1270 C.ar    1  UNL1        0.0006
     16  C12       -4.6390   -0.6040   -0.3140 C.ar    1  UNL1       -0.0526
     17  C13       -5.7050    0.2760   -0.5210 C.ar    1  UNL1       -0.0611
     18  C14       -5.5060    1.6140   -0.2690 C.ar    1  UNL1       -0.0617
     19  C15       -4.2910    2.0660    0.1730 C.ar    1  UNL1       -0.0611
     20  C16       -3.2670    1.1640    0.3630 C.ar    1  UNL1       -0.0526
     21  N3        -1.0870   -0.6120    0.7920 N.ar    1  UNL1       -0.1946
     22  C17        3.3120    0.1540    1.0240 C.ar    1  UNL1       -0.0071
     23 H           7.3381    2.1163    0.1290 H       1  UNL1        0.1453
     24 H           6.2898    1.7602   -1.1679 H       1  UNL1        0.1453
     25 H           4.7010    1.0980   -1.8045 H       1  UNL1        0.0625
     26 H           2.6327    0.2248   -2.6555 H       1  UNL1        0.0619
     27 H           0.9681   -0.7073   -1.1470 H       1  UNL1        0.0654
     28 H          -1.3393   -4.2937    0.1860 H       1  UNL1        0.0832
     29 H          -3.2600   -2.8237   -0.2051 H       1  UNL1        0.0654
     30 H          -4.7845   -1.6084   -0.5014 H       1  UNL1        0.0624
     31 H          -6.6186   -0.0692   -0.8545 H       1  UNL1        0.0618
     32 H          -6.2787    2.2825   -0.4143 H       1  UNL1        0.0618
     33 H          -4.1443    3.0700    0.3614 H       1  UNL1        0.0618
     34 H          -2.3552    1.5146    0.6956 H       1  UNL1        0.0624
     35 H           3.4990    0.1347    2.0387 H       1  UNL1        0.0662
@<TRIPOS>BOND
     1     1     2   am
     2     2     3    2
     3     2     4    1
     4     4     5   ar
     5     4    22   ar
     6     5     6   ar
     7     6     7   ar
     8     7     8   ar
     9     8     9    1
    10     8    22   ar
    11     9    10    1
    12    10    11   ar
    13    10    21   ar
    14    11    12   ar
    15    12    13   ar
    16    13    14   ar
    17    14    15    1
    18    14    21   ar
    19    15    16   ar
    20    15    20   ar
    21    16    17   ar
    22    17    18   ar
    23    18    19   ar
    24    19    20   ar
    25     1    23    1
    26     1    24    1
    27     5    25    1
    28     6    26    1
    29     7    27    1
    30    12    28    1
    31    13    29    1
    32    16    30    1
    33    17    31    1
    34    18    32    1
    35    19    33    1
    36    20    34    1
    37    22    35    1
@<TRIPOS>MOLECULE
../data/bude_mols_rdkit_confs2/molecule_54.pdb
 35 37 0 0 0
SMALL
GASTEIGER

@<TRIPOS>ATOM
      1  N1         5.2230   -0.9800    2.0930 N.am    1  UNL1       -0.3253
      2  C1         4.0180   -0.2710    1.9000 C.2     1  UNL1        0.2416
      3  O1         3.2530    0.0410    2.8260 O.2     1  UNL1       -0.2704
      4  C2         3.6330    0.1260    0.5360 C.ar    1  UNL1        0.0400
      5  C3         4.4360   -0.1990   -0.5500 C.ar    1  UNL1       -0.0494
      6  C4         4.0850    0.1690   -1.8320 C.ar    1  UNL1       -0.0576
      7  C5         2.9290    0.8700   -2.0850 C.ar    1  UNL1       -0.0192
      8  C6         2.1210    1.2010   -1.0170 C.ar    1  UNL1        0.1326
      9  O2         0.9450    1.9080   -1.2250 O.3     1  UNL1       -0.4236
     10  C7        -0.2860    1.3120   -1.4770 C.ar    1  UNL1        0.3239
     11  N2        -0.6300    1.1910   -2.7700 N.ar    1  UNL1       -0.2030
     12  C8        -1.7820    0.6360   -3.0860 C.ar    1  UNL1        0.0350
     13  C9        -2.6180    0.1860   -2.0680 C.ar    1  UNL1       -0.0173
     14  C10       -2.2530    0.3170   -0.7550 C.ar    1  UNL1        0.0778
     15  C11       -3.1240   -0.1530    0.2960 C.ar    1  UNL1        0.0006
     16  C12       -4.3420   -0.7380    0.0720 C.ar    1  UNL1       -0.0526
     17  C13       -5.1470   -1.1760    1.1330 C.ar    1  UNL1       -0.0611
     18  C14       -4.7420   -1.0340    2.4400 C.ar    1  UNL1       -0.0617
     19  C15       -3.5160   -0.4440    2.6540 C.ar    1  UNL1       -0.0611
     20  C16       -2.7180   -0.0110    1.6330 C.ar    1  UNL1       -0.0526
     21  N3        -1.0530    0.8960   -0.4670 N.ar    1  UNL1       -0.1946
     22  C17        2.4770    0.8280    0.2780 C.ar    1  UNL1       -0.0071
     23 H           5.4941   -1.2525    2.9994 H       1  UNL1        0.1453
     24 H           5.7925   -1.2021    1.3212 H       1  UNL1        0.1453
     25 H           5.3103   -0.7249   -0.3948 H       1  UNL1        0.0625
     26 H           4.7028   -0.0870   -2.6180 H       1  UNL1        0.0619
     27 H           2.6731    1.1409   -3.0474 H       1  UNL1        0.0654
     28 H          -2.0609    0.5362   -4.0746 H       1  UNL1        0.0832
     29 H          -3.5223   -0.2509   -2.3055 H       1  UNL1        0.0654
     30 H          -4.6740   -0.8589   -0.8976 H       1  UNL1        0.0624
     31 H          -6.0597   -1.6127    0.9299 H       1  UNL1        0.0618
     32 H          -5.3303   -1.3551    3.2248 H       1  UNL1        0.0618
     33 H          -3.1868   -0.3241    3.6247 H       1  UNL1        0.0618
     34 H          -1.8073    0.4250    1.8465 H       1  UNL1        0.0624
     35 H           1.8585    1.0845    1.0633 H       1  UNL1        0.0662
@<TRIPOS>BOND
     1     1     2   am
     2     2     3    2
     3     2     4    1
     4     4     5   ar
     5     4    22   ar
     6     5     6   ar
     7     6     7   ar
     8     7     8   ar
     9     8     9    1
    10     8    22   ar
    11     9    10    1
    12    10    11   ar
    13    10    21   ar
    14    11    12   ar
    15    12    13   ar
    16    13    14   ar
    17    14    15    1
    18    14    21   ar
    19    15    16   ar
    20    15    20   ar
    21    16    17   ar
    22    17    18   ar
    23    18    19   ar
    24    19    20   ar
    25     1    23    1
    26     1    24    1
    27     5    25    1
    28     6    26    1
    29     7    27    1
    30    12    28    1
    31    13    29    1
    32    16    30    1
    33    17    31    1
    34    18    32    1
    35    19    33    1
    36    20    34    1
    37    22    35    1
@<TRIPOS>MOLECULE
../data/bude_mols_rdkit_confs2/molecule_54.pdb
 35 37 0 0 0
SMALL
GASTEIGER

@<TRIPOS>ATOM
      1  N1         5.6560    0.3380   -0.9120 N.am    1  UNL1       -0.3253
      2  C1         5.2660    1.1700    0.1530 C.2     1  UNL1        0.2416
      3  O1         5.9920    2.1440    0.4690 O.2     1  UNL1       -0.2704
      4  C2         4.0340    0.8870    0.8670 C.ar    1  UNL1        0.0400
      5  C3         3.6650    1.7090    1.9070 C.ar    1  UNL1       -0.0494
      6  C4         2.5030    1.4590    2.5960 C.ar    1  UNL1       -0.0576
      7  C5         1.7240    0.3650    2.2130 C.ar    1  UNL1       -0.0192
      8  C6         2.0770   -0.4580    1.1830 C.ar    1  UNL1        0.1326
      9  O2         1.3310   -1.5520    0.7740 O.3     1  UNL1       -0.4236
     10  C7         0.3390   -1.4160   -0.2040 C.ar    1  UNL1        0.3239
     11  N2         0.5870   -1.6750   -1.5000 N.ar    1  UNL1       -0.2030
     12  C8        -0.3270   -1.5600   -2.4620 C.ar    1  UNL1        0.0350
     13  C9        -1.6190   -1.1450   -2.1010 C.ar    1  UNL1       -0.0173
     14  C10       -1.9000   -0.8740   -0.7840 C.ar    1  UNL1        0.0778
     15  C11       -3.2270   -0.4410   -0.3720 C.ar    1  UNL1        0.0006
     16  C12       -4.2890   -0.2670   -1.2190 C.ar    1  UNL1       -0.0526
     17  C13       -5.5400    0.1520   -0.7450 C.ar    1  UNL1       -0.0611
     18  C14       -5.7500    0.4070    0.5880 C.ar    1  UNL1       -0.0617
     19  C15       -4.6820    0.2320    1.4410 C.ar    1  UNL1       -0.0611
     20  C16       -3.4500   -0.1810    0.9780 C.ar    1  UNL1       -0.0526
     21  N3        -0.9030   -1.0210    0.1180 N.ar    1  UNL1       -0.1946
     22  C17        3.2460   -0.1870    0.5080 C.ar    1  UNL1       -0.0071
     23 H           6.4900    0.5231   -1.4013 H       1  UNL1        0.1453
     24 H           5.0949   -0.4294   -1.1681 H       1  UNL1        0.1453
     25 H           4.2594    2.5110    2.1687 H       1  UNL1        0.0625
     26 H           2.2125    2.0657    3.3786 H       1  UNL1        0.0619
     27 H           0.8503    0.1720    2.7271 H       1  UNL1        0.0654
     28 H          -0.0923   -1.7699   -3.4448 H       1  UNL1        0.0832
     29 H          -2.3523   -1.0443   -2.8201 H       1  UNL1        0.0654
     30 H          -4.1657   -0.4482   -2.2275 H       1  UNL1        0.0624
     31 H          -6.3190    0.2713   -1.4113 H       1  UNL1        0.0618
     32 H          -6.6704    0.7171    0.9368 H       1  UNL1        0.0618
     33 H          -4.8067    0.4141    2.4491 H       1  UNL1        0.0618
     34 H          -2.6745   -0.3003    1.6484 H       1  UNL1        0.0624
     35 H           3.5359   -0.7937   -0.2749 H       1  UNL1        0.0662
@<TRIPOS>BOND
     1     1     2   am
     2     2     3    2
     3     2     4    1
     4     4     5   ar
     5     4    22   ar
     6     5     6   ar
     7     6     7   ar
     8     7     8   ar
     9     8     9    1
    10     8    22   ar
    11     9    10    1
    12    10    11   ar
    13    10    21   ar
    14    11    12   ar
    15    12    13   ar
    16    13    14   ar
    17    14    15    1
    18    14    21   ar
    19    15    16   ar
    20    15    20   ar
    21    16    17   ar
    22    17    18   ar
    23    18    19   ar
    24    19    20   ar
    25     1    23    1
    26     1    24    1
    27     5    25    1
    28     6    26    1
    29     7    27    1
    30    12    28    1
    31    13    29    1
    32    16    30    1
    33    17    31    1
    34    18    32    1
    35    19    33    1
    36    20    34    1
    37    22    35    1
