@<TRIPOS>MOLECULE
../data/bude_mols_rdkit_confs2/molecule_29.pdb
 43 45 0 0 0
SMALL
GASTEIGER

@<TRIPOS>ATOM
      1  O1         2.5060   -2.2660    0.9930 O.2     1  UNL1       -0.2699
      2  C1         2.0770   -1.0910    0.9190 C.2     1  UNL1        0.2484
      3  N1         2.8420   -0.0810    0.3780 N.am    1  UNL1       -0.2786
      4  C2         4.1370   -0.2080   -0.1440 C.ar    1  UNL1        0.0756
      5  C3         4.8550   -1.3770   -0.1970 C.ar    1  UNL1       -0.0369
      6  C4         6.1460   -1.4650   -0.7250 C.ar    1  UNL1       -0.0598
      7  C5         6.7140   -0.3190   -1.2130 C.ar    1  UNL1       -0.0582
      8  C6         6.0470    0.8690   -1.1850 C.ar    1  UNL1       -0.0183
      9  C7         4.7910    0.9270   -0.6660 C.ar    1  UNL1        0.1380
     10  O2         4.0750    2.1220   -0.6190 O.3     1  UNL1       -0.5049
     11  C8         0.6980   -0.8640    1.4530 C.ar    1  UNL1        0.0389
     12  C9         0.1070   -1.8490    2.2250 C.ar    1  UNL1       -0.0495
     13  C10       -1.1600   -1.6560    2.7170 C.ar    1  UNL1       -0.0592
     14  C11       -1.8570   -0.4790    2.4470 C.ar    1  UNL1       -0.0350
     15  C12       -1.2790    0.4870    1.6910 C.ar    1  UNL1        0.1092
     16  S1        -2.0720    2.0140    1.2790 S.O2    1  UNL1        0.0725
     17  O3        -0.9780    3.0590    1.1960 O.2     1  UNL1       -0.1500
     18  O4        -3.0180    2.4600    2.3370 O.2     1  UNL1       -0.1500
     19  N2        -2.8150    1.8330   -0.2340 N.pl3   1  UNL1       -0.2127
     20  C13       -3.8460    0.8860   -0.4720 C.ar    1  UNL1        0.0893
     21  C14       -4.6160    0.4680    0.5790 C.ar    1  UNL1       -0.0358
     22  C15       -5.6310   -0.4530    0.3270 C.ar    1  UNL1       -0.0597
     23  C16       -5.8330   -0.9090   -0.9400 C.ar    1  UNL1       -0.0582
     24  C17       -5.0490   -0.4780   -1.9900 C.ar    1  UNL1       -0.0183
     25  C18       -4.0540    0.4160   -1.7760 C.ar    1  UNL1        0.1391
     26  O5        -3.2100    0.9090   -2.7820 O.3     1  UNL1       -0.5049
     27  C19        0.0030    0.2870    1.1960 C.ar    1  UNL1       -0.0230
     28 H           2.4402    0.8175    0.3558 H       1  UNL1        0.1552
     29 H           4.4184   -2.2360    0.1725 H       1  UNL1        0.0637
     30 H           6.6538   -2.3632   -0.7463 H       1  UNL1        0.0618
     31 H           7.6659   -0.3555   -1.6099 H       1  UNL1        0.0619
     32 H           6.4934    1.7221   -1.5564 H       1  UNL1        0.0655
     33 H           3.2111    2.1366   -0.2566 H       1  UNL1        0.2922
     34 H           0.6157   -2.7233    2.4296 H       1  UNL1        0.0625
     35 H          -1.6013   -2.3899    3.2929 H       1  UNL1        0.0618
     36 H          -2.8092   -0.3435    2.8211 H       1  UNL1        0.0637
     37 H          -2.5199    2.4073   -0.9772 H       1  UNL1        0.1738
     38 H          -4.4495    0.8252    1.5328 H       1  UNL1        0.0638
     39 H          -6.2282   -0.7887    1.0988 H       1  UNL1        0.0618
     40 H          -6.5873   -1.5903   -1.1182 H       1  UNL1        0.0619
     41 H          -5.2211   -0.8379   -2.9418 H       1  UNL1        0.0655
     42 H          -2.5389    1.5273   -2.5692 H       1  UNL1        0.2922
     43 H           0.4419    1.0231    0.6211 H       1  UNL1        0.0645
@<TRIPOS>BOND
     1     1     2    2
     2     2     3   am
     3     2    11    1
     4     3     4    1
     5     4     5   ar
     6     4     9   ar
     7     5     6   ar
     8     6     7   ar
     9     7     8   ar
    10     8     9   ar
    11     9    10    1
    12    11    12   ar
    13    11    27   ar
    14    12    13   ar
    15    13    14   ar
    16    14    15   ar
    17    15    16    1
    18    15    27   ar
    19    16    17    2
    20    16    18    2
    21    16    19    1
    22    19    20    1
    23    20    21   ar
    24    20    25   ar
    25    21    22   ar
    26    22    23   ar
    27    23    24   ar
    28    24    25   ar
    29    25    26    1
    30     3    28    1
    31     5    29    1
    32     6    30    1
    33     7    31    1
    34     8    32    1
    35    10    33    1
    36    12    34    1
    37    13    35    1
    38    14    36    1
    39    19    37    1
    40    21    38    1
    41    22    39    1
    42    23    40    1
    43    24    41    1
    44    26    42    1
    45    27    43    1
@<TRIPOS>MOLECULE
../data/bude_mols_rdkit_confs2/molecule_29.pdb
 43 45 0 0 0
SMALL
GASTEIGER

@<TRIPOS>ATOM
      1  O1        -1.2250    1.2970    0.1360 O.2     1  UNL1       -0.2699
      2  C1        -1.7140    0.1900   -0.1560 C.2     1  UNL1        0.2484
      3  N1        -3.0760   -0.0660    0.0600 N.am    1  UNL1       -0.2786
      4  C2        -4.0410    0.8370    0.6090 C.ar    1  UNL1        0.0756
      5  C3        -3.7120    2.1050    0.9960 C.ar    1  UNL1       -0.0369
      6  C4        -4.6840    2.9610    1.5290 C.ar    1  UNL1       -0.0598
      7  C5        -5.9870    2.5690    1.6830 C.ar    1  UNL1       -0.0582
      8  C6        -6.3140    1.3010    1.2950 C.ar    1  UNL1       -0.0183
      9  C7        -5.3630    0.4320    0.7620 C.ar    1  UNL1        0.1380
     10  O2        -5.7940   -0.8160    0.4050 O.3     1  UNL1       -0.5049
     11  C8        -0.7940   -0.8050   -0.7270 C.ar    1  UNL1        0.0389
     12  C9        -1.1490   -2.1130   -0.8280 C.ar    1  UNL1       -0.0495
     13  C10       -0.2340   -3.0090   -1.3860 C.ar    1  UNL1       -0.0592
     14  C11        1.0090   -2.6270   -1.8360 C.ar    1  UNL1       -0.0350
     15  C12        1.3560   -1.2840   -1.7230 C.ar    1  UNL1        0.1092
     16  S1         2.8900   -0.7240   -2.2940 S.O2    1  UNL1        0.0725
     17  O3         3.2520   -1.3980   -3.6190 O.2     1  UNL1       -0.1500
     18  O4         2.7360    0.7540   -2.6070 O.2     1  UNL1       -0.1500
     19  N2         4.1860   -0.9900   -1.2100 N.pl3   1  UNL1       -0.2127
     20  C13        4.1700   -0.3950    0.0660 C.ar    1  UNL1        0.0893
     21  C14        3.1500   -0.6660    0.9390 C.ar    1  UNL1       -0.0358
     22  C15        3.1600   -0.0870    2.2110 C.ar    1  UNL1       -0.0597
     23  C16        4.2000    0.7460    2.5580 C.ar    1  UNL1       -0.0582
     24  C17        5.2300    1.0220    1.6860 C.ar    1  UNL1       -0.0183
     25  C18        5.2150    0.4520    0.4390 C.ar    1  UNL1        0.1391
     26  O5         6.2560    0.7360   -0.4340 O.3     1  UNL1       -0.5049
     27  C19        0.4660   -0.3910   -1.1770 C.ar    1  UNL1       -0.0230
     28 H          -3.4021   -0.9600   -0.1923 H       1  UNL1        0.1552
     29 H          -2.7394    2.4349    0.8948 H       1  UNL1        0.0637
     30 H          -4.4104    3.9144    1.8138 H       1  UNL1        0.0618
     31 H          -6.6952    3.2077    2.0774 H       1  UNL1        0.0619
     32 H          -7.2887    0.9783    1.3989 H       1  UNL1        0.0655
     33 H          -5.1904   -1.4342    0.0424 H       1  UNL1        0.2922
     34 H          -2.0725   -2.4366   -0.5003 H       1  UNL1        0.0625
     35 H          -0.5024   -4.0024   -1.4643 H       1  UNL1        0.0618
     36 H           1.6624   -3.3138   -2.2439 H       1  UNL1        0.0637
     37 H           4.9432   -1.5592   -1.4783 H       1  UNL1        0.1738
     38 H           2.3796   -1.2932    0.6595 H       1  UNL1        0.0638
     39 H           2.3989   -0.2810    2.8805 H       1  UNL1        0.0618
     40 H           4.2080    1.1751    3.4965 H       1  UNL1        0.0619
     41 H           6.0009    1.6480    1.9668 H       1  UNL1        0.0655
     42 H           6.2654    0.3571   -1.2909 H       1  UNL1        0.2922
     43 H           0.7308    0.6032   -1.0970 H       1  UNL1        0.0645
@<TRIPOS>BOND
     1     1     2    2
     2     2     3   am
     3     2    11    1
     4     3     4    1
     5     4     5   ar
     6     4     9   ar
     7     5     6   ar
     8     6     7   ar
     9     7     8   ar
    10     8     9   ar
    11     9    10    1
    12    11    12   ar
    13    11    27   ar
    14    12    13   ar
    15    13    14   ar
    16    14    15   ar
    17    15    16    1
    18    15    27   ar
    19    16    17    2
    20    16    18    2
    21    16    19    1
    22    19    20    1
    23    20    21   ar
    24    20    25   ar
    25    21    22   ar
    26    22    23   ar
    27    23    24   ar
    28    24    25   ar
    29    25    26    1
    30     3    28    1
    31     5    29    1
    32     6    30    1
    33     7    31    1
    34     8    32    1
    35    10    33    1
    36    12    34    1
    37    13    35    1
    38    14    36    1
    39    19    37    1
    40    21    38    1
    41    22    39    1
    42    23    40    1
    43    24    41    1
    44    26    42    1
    45    27    43    1
@<TRIPOS>MOLECULE
../data/bude_mols_rdkit_confs2/molecule_29.pdb
 43 45 0 0 0
SMALL
GASTEIGER

@<TRIPOS>ATOM
      1  O1        -2.2890   -1.5420    0.7270 O.2     1  UNL1       -0.2699
      2  C1        -1.9430   -0.9420   -0.3380 C.2     1  UNL1        0.2484
      3  N1        -2.9550   -0.2740   -1.0650 N.am    1  UNL1       -0.2786
      4  C2        -4.3210   -0.1890   -0.7580 C.ar    1  UNL1        0.0756
      5  C3        -4.9540   -0.7400    0.3090 C.ar    1  UNL1       -0.0369
      6  C4        -6.3220   -0.6080    0.5430 C.ar    1  UNL1       -0.0598
      7  C5        -7.0830    0.1140   -0.3450 C.ar    1  UNL1       -0.0582
      8  C6        -6.4870    0.6910   -1.4400 C.ar    1  UNL1       -0.0183
      9  C7        -5.1340    0.5350   -1.6320 C.ar    1  UNL1        0.1380
     10  O2        -4.5710    1.1450   -2.7680 O.3     1  UNL1       -0.5049
     11  C8        -0.5270   -0.9740   -0.7490 C.ar    1  UNL1        0.0389
     12  C9        -0.1120   -0.5660   -1.9850 C.ar    1  UNL1       -0.0495
     13  C10        1.2480   -0.6040   -2.3440 C.ar    1  UNL1       -0.0592
     14  C11        2.1880   -1.0630   -1.4300 C.ar    1  UNL1       -0.0350
     15  C12        1.7760   -1.4690   -0.2010 C.ar    1  UNL1        0.1092
     16  S1         2.8640   -2.0510    1.0110 S.O2    1  UNL1        0.0725
     17  O3         4.0530   -2.7510    0.3940 O.2     1  UNL1       -0.1500
     18  O4         2.1760   -3.0710    1.9090 O.2     1  UNL1       -0.1500
     19  N2         3.3310   -0.7290    2.0120 N.pl3   1  UNL1       -0.2127
     20  C13        4.0300    0.4160    1.5470 C.ar    1  UNL1        0.0893
     21  C14        4.8360    0.2960    0.4330 C.ar    1  UNL1       -0.0358
     22  C15        5.5430    1.4120   -0.0280 C.ar    1  UNL1       -0.0597
     23  C16        5.4230    2.6140    0.6370 C.ar    1  UNL1       -0.0582
     24  C17        4.6210    2.7340    1.7450 C.ar    1  UNL1       -0.0183
     25  C18        3.9330    1.6200    2.1830 C.ar    1  UNL1        0.1391
     26  O5         3.1250    1.7410    3.2990 O.3     1  UNL1       -0.5049
     27  C19        0.4180   -1.4250    0.1440 C.ar    1  UNL1       -0.0230
     28 H          -2.6661    0.1870   -1.8855 H       1  UNL1        0.1552
     29 H          -4.3932   -1.2852    0.9822 H       1  UNL1        0.0637
     30 H          -6.7566   -1.0457    1.3704 H       1  UNL1        0.0618
     31 H          -8.0975    0.2222   -0.1899 H       1  UNL1        0.0619
     32 H          -7.0491    1.2363   -2.1121 H       1  UNL1        0.0655
     33 H          -3.6529    1.0638   -2.9369 H       1  UNL1        0.2922
     34 H          -0.8074   -0.2243   -2.6666 H       1  UNL1        0.0625
     35 H           1.5457   -0.2924   -3.2817 H       1  UNL1        0.0618
     36 H           3.1883   -1.0952   -1.6819 H       1  UNL1        0.0637
     37 H           3.0983   -0.7701    2.9677 H       1  UNL1        0.1738
     38 H           4.9165   -0.6093   -0.0559 H       1  UNL1        0.0638
     39 H           6.1497    1.3361   -0.8594 H       1  UNL1        0.0618
     40 H           5.9445    3.4368    0.2964 H       1  UNL1        0.0619
     41 H           4.5345    3.6360    2.2389 H       1  UNL1        0.0655
     42 H           2.6483    0.9988    3.6150 H       1  UNL1        0.2922
     43 H           0.1222   -1.7358    1.0826 H       1  UNL1        0.0645
@<TRIPOS>BOND
     1     1     2    2
     2     2     3   am
     3     2    11    1
     4     3     4    1
     5     4     5   ar
     6     4     9   ar
     7     5     6   ar
     8     6     7   ar
     9     7     8   ar
    10     8     9   ar
    11     9    10    1
    12    11    12   ar
    13    11    27   ar
    14    12    13   ar
    15    13    14   ar
    16    14    15   ar
    17    15    16    1
    18    15    27   ar
    19    16    17    2
    20    16    18    2
    21    16    19    1
    22    19    20    1
    23    20    21   ar
    24    20    25   ar
    25    21    22   ar
    26    22    23   ar
    27    23    24   ar
    28    24    25   ar
    29    25    26    1
    30     3    28    1
    31     5    29    1
    32     6    30    1
    33     7    31    1
    34     8    32    1
    35    10    33    1
    36    12    34    1
    37    13    35    1
    38    14    36    1
    39    19    37    1
    40    21    38    1
    41    22    39    1
    42    23    40    1
    43    24    41    1
    44    26    42    1
    45    27    43    1
@<TRIPOS>MOLECULE
../data/bude_mols_rdkit_confs2/molecule_29.pdb
 43 45 0 0 0
SMALL
GASTEIGER

@<TRIPOS>ATOM
      1  O1         2.0470   -1.0070   -2.5780 O.2     1  UNL1       -0.2699
      2  C1         1.6820   -0.9380   -1.3840 C.2     1  UNL1        0.2484
      3  N1         2.3360   -0.0770   -0.4970 N.am    1  UNL1       -0.2786
      4  C2         3.4140    0.7760   -0.7790 C.ar    1  UNL1        0.0756
      5  C3         3.9920    0.8860   -2.0040 C.ar    1  UNL1       -0.0369
      6  C4         5.0740    1.7470   -2.2740 C.ar    1  UNL1       -0.0598
      7  C5         5.5730    2.5150   -1.2540 C.ar    1  UNL1       -0.0582
      8  C6         5.0210    2.4300   -0.0200 C.ar    1  UNL1       -0.0183
      9  C7         3.9390    1.5640    0.2330 C.ar    1  UNL1        0.1380
     10  O2         3.4560    1.5560    1.5190 O.3     1  UNL1       -0.5049
     11  C8         0.5490   -1.7950   -0.9720 C.ar    1  UNL1        0.0389
     12  C9         0.1710   -2.8620   -1.7940 C.ar    1  UNL1       -0.0495
     13  C10       -0.8910   -3.6500   -1.4040 C.ar    1  UNL1       -0.0592
     14  C11       -1.5740   -3.3930   -0.2210 C.ar    1  UNL1       -0.0350
     15  C12       -1.2190   -2.3480    0.6010 C.ar    1  UNL1        0.1092
     16  S1        -2.0960   -2.0540    2.0910 S.O2    1  UNL1        0.0725
     17  O3        -1.1850   -1.4790    3.1380 O.2     1  UNL1       -0.1500
     18  O4        -2.5310   -3.3970    2.6000 O.2     1  UNL1       -0.1500
     19  N2        -3.4630   -1.0720    1.8050 N.pl3   1  UNL1       -0.2127
     20  C13       -3.4210    0.2410    1.3070 C.ar    1  UNL1        0.0893
     21  C14       -2.2920    1.0220    1.4870 C.ar    1  UNL1       -0.0358
     22  C15       -2.1820    2.3140    1.0410 C.ar    1  UNL1       -0.0597
     23  C16       -3.2510    2.8710    0.3770 C.ar    1  UNL1       -0.0582
     24  C17       -4.3820    2.1220    0.1840 C.ar    1  UNL1       -0.0183
     25  C18       -4.4870    0.8040    0.6420 C.ar    1  UNL1        0.1391
     26  O5        -5.6500    0.1150    0.4120 O.3     1  UNL1       -0.5049
     27  C19       -0.1430   -1.5620    0.1910 C.ar    1  UNL1       -0.0230
     28 H           2.0027   -0.0683    0.4293 H       1  UNL1        0.1552
     29 H           3.6197    0.3100   -2.7751 H       1  UNL1        0.0637
     30 H           5.4825    1.7985   -3.2203 H       1  UNL1        0.0618
     31 H           6.3648    3.1543   -1.4253 H       1  UNL1        0.0619
     32 H           5.3988    3.0085    0.7466 H       1  UNL1        0.0655
     33 H           2.7371    0.9996    1.7460 H       1  UNL1        0.2922
     34 H           0.6760   -3.0551   -2.6730 H       1  UNL1        0.0625
     35 H          -1.1828   -4.4415   -1.9985 H       1  UNL1        0.0618
     36 H          -2.3649   -3.9994    0.0469 H       1  UNL1        0.0637
     37 H          -4.3479   -1.4549    2.0042 H       1  UNL1        0.1738
     38 H          -1.4881    0.6085    1.9848 H       1  UNL1        0.0638
     39 H          -1.3181    2.8558    1.1995 H       1  UNL1        0.0618
     40 H          -3.2014    3.8412    0.0286 H       1  UNL1        0.0619
     41 H          -5.1814    2.5431   -0.3147 H       1  UNL1        0.0655
     42 H          -5.7382   -0.7685    0.7115 H       1  UNL1        0.2922
     43 H           0.1459   -0.7708    0.7873 H       1  UNL1        0.0645
@<TRIPOS>BOND
     1     1     2    2
     2     2     3   am
     3     2    11    1
     4     3     4    1
     5     4     5   ar
     6     4     9   ar
     7     5     6   ar
     8     6     7   ar
     9     7     8   ar
    10     8     9   ar
    11     9    10    1
    12    11    12   ar
    13    11    27   ar
    14    12    13   ar
    15    13    14   ar
    16    14    15   ar
    17    15    16    1
    18    15    27   ar
    19    16    17    2
    20    16    18    2
    21    16    19    1
    22    19    20    1
    23    20    21   ar
    24    20    25   ar
    25    21    22   ar
    26    22    23   ar
    27    23    24   ar
    28    24    25   ar
    29    25    26    1
    30     3    28    1
    31     5    29    1
    32     6    30    1
    33     7    31    1
    34     8    32    1
    35    10    33    1
    36    12    34    1
    37    13    35    1
    38    14    36    1
    39    19    37    1
    40    21    38    1
    41    22    39    1
    42    23    40    1
    43    24    41    1
    44    26    42    1
    45    27    43    1
@<TRIPOS>MOLECULE
../data/bude_mols_rdkit_confs2/molecule_29.pdb
 43 45 0 0 0
SMALL
GASTEIGER

@<TRIPOS>ATOM
      1  O1         3.1020   -2.1400   -0.7330 O.2     1  UNL1       -0.2699
      2  C1         2.2960   -1.1570   -0.6020 C.2     1  UNL1        0.2484
      3  N1         2.8010    0.0010    0.0130 N.am    1  UNL1       -0.2786
      4  C2         4.0840    0.2430    0.5120 C.ar    1  UNL1        0.0756
      5  C3         5.1180   -0.6430    0.4900 C.ar    1  UNL1       -0.0369
      6  C4         6.3810   -0.3580    1.0000 C.ar    1  UNL1       -0.0598
      7  C5         6.6200    0.8750    1.5600 C.ar    1  UNL1       -0.0582
      8  C6         5.6070    1.8030    1.6060 C.ar    1  UNL1       -0.0183
      9  C7         4.3680    1.4860    1.0910 C.ar    1  UNL1        0.1380
     10  O2         3.3460    2.4430    1.1450 O.3     1  UNL1       -0.5049
     11  C8         0.9310   -1.3220   -1.0990 C.ar    1  UNL1        0.0389
     12  C9         0.4280   -2.5570   -1.4590 C.ar    1  UNL1       -0.0495
     13  C10       -0.8600   -2.7090   -1.9330 C.ar    1  UNL1       -0.0592
     14  C11       -1.6760   -1.6220   -2.0590 C.ar    1  UNL1       -0.0350
     15  C12       -1.2020   -0.3770   -1.7080 C.ar    1  UNL1        0.1092
     16  S1        -2.1860    1.0350   -1.8440 S.O2    1  UNL1        0.0725
     17  O3        -1.3650    2.2020   -2.3720 O.2     1  UNL1       -0.1500
     18  O4        -3.2820    0.7990   -2.8820 O.2     1  UNL1       -0.1500
     19  N2        -2.8340    1.4820   -0.3430 N.pl3   1  UNL1       -0.2127
     20  C13       -3.7020    0.6740    0.4310 C.ar    1  UNL1        0.0893
     21  C14       -3.3450   -0.5850    0.8420 C.ar    1  UNL1       -0.0358
     22  C15       -4.2070   -1.3460    1.6180 C.ar    1  UNL1       -0.0597
     23  C16       -5.4260   -0.8020    1.9630 C.ar    1  UNL1       -0.0582
     24  C17       -5.7980    0.4640    1.5570 C.ar    1  UNL1       -0.0183
     25  C18       -4.9370    1.1880    0.7970 C.ar    1  UNL1        0.1391
     26  O5        -5.2520    2.4660    0.3580 O.3     1  UNL1       -0.5049
     27  C19        0.1100   -0.2410   -1.2270 C.ar    1  UNL1       -0.0230
     28 H           2.1628    0.7449    0.1052 H       1  UNL1        0.1552
     29 H           4.9566   -1.5735    0.0738 H       1  UNL1        0.0637
     30 H           7.1313   -1.0654    0.9583 H       1  UNL1        0.0618
     31 H           7.5514    1.1016    1.9423 H       1  UNL1        0.0619
     32 H           5.7730    2.7320    2.0238 H       1  UNL1        0.0655
     33 H           2.4983    2.2432    0.7994 H       1  UNL1        0.2922
     34 H           1.0317   -3.3894   -1.3713 H       1  UNL1        0.0625
     35 H          -1.2063   -3.6459   -2.1924 H       1  UNL1        0.0618
     36 H          -2.6388   -1.7318   -2.4138 H       1  UNL1        0.0637
     37 H          -2.5898    2.3656    0.0160 H       1  UNL1        0.1738
     38 H          -2.4264   -0.9697    0.5714 H       1  UNL1        0.0638
     39 H          -3.9429   -2.2940    1.9288 H       1  UNL1        0.0618
     40 H          -6.0778   -1.3560    2.5402 H       1  UNL1        0.0619
     41 H          -6.7149    0.8533    1.8266 H       1  UNL1        0.0655
     42 H          -4.6405    2.9455   -0.1656 H       1  UNL1        0.2922
     43 H           0.4593    0.6942   -0.9656 H       1  UNL1        0.0645
@<TRIPOS>BOND
     1     1     2    2
     2     2     3   am
     3     2    11    1
     4     3     4    1
     5     4     5   ar
     6     4     9   ar
     7     5     6   ar
     8     6     7   ar
     9     7     8   ar
    10     8     9   ar
    11     9    10    1
    12    11    12   ar
    13    11    27   ar
    14    12    13   ar
    15    13    14   ar
    16    14    15   ar
    17    15    16    1
    18    15    27   ar
    19    16    17    2
    20    16    18    2
    21    16    19    1
    22    19    20    1
    23    20    21   ar
    24    20    25   ar
    25    21    22   ar
    26    22    23   ar
    27    23    24   ar
    28    24    25   ar
    29    25    26    1
    30     3    28    1
    31     5    29    1
    32     6    30    1
    33     7    31    1
    34     8    32    1
    35    10    33    1
    36    12    34    1
    37    13    35    1
    38    14    36    1
    39    19    37    1
    40    21    38    1
    41    22    39    1
    42    23    40    1
    43    24    41    1
    44    26    42    1
    45    27    43    1
@<TRIPOS>MOLECULE
../data/bude_mols_rdkit_confs2/molecule_29.pdb
 43 45 0 0 0
SMALL
GASTEIGER

@<TRIPOS>ATOM
      1  O1         1.6670   -1.2430    0.7060 O.2     1  UNL1       -0.2699
      2  C1         1.7760   -0.3420   -0.1520 C.2     1  UNL1        0.2484
      3  N1         2.7970    0.6030   -0.0480 N.am    1  UNL1       -0.2786
      4  C2         3.7960    0.7130    0.9350 C.ar    1  UNL1        0.0756
      5  C3         3.9210   -0.1430    2.0000 C.ar    1  UNL1       -0.0369
      6  C4         4.9460    0.0210    2.9530 C.ar    1  UNL1       -0.0598
      7  C5         5.8590    1.0400    2.8580 C.ar    1  UNL1       -0.0582
      8  C6         5.7350    1.8990    1.7910 C.ar    1  UNL1       -0.0183
      9  C7         4.7320    1.7400    0.8560 C.ar    1  UNL1        0.1380
     10  O2         4.6240    2.6180   -0.2130 O.3     1  UNL1       -0.5049
     11  C8         0.8000   -0.3200   -1.2570 C.ar    1  UNL1        0.0389
     12  C9         1.0050    0.4390   -2.3770 C.ar    1  UNL1       -0.0495
     13  C10        0.0340    0.4200   -3.3900 C.ar    1  UNL1       -0.0592
     14  C11       -1.1030   -0.3450   -3.2610 C.ar    1  UNL1       -0.0350
     15  C12       -1.3320   -1.1260   -2.1270 C.ar    1  UNL1        0.1092
     16  S1        -2.7890   -2.0940   -2.0030 S.O2    1  UNL1        0.0725
     17  O3        -2.5440   -3.3550   -1.2350 O.2     1  UNL1       -0.1500
     18  O4        -3.1360   -2.5070   -3.4030 O.2     1  UNL1       -0.1500
     19  N2        -4.0310   -1.1350   -1.3640 N.pl3   1  UNL1       -0.2127
     20  C13       -4.0420   -0.5170   -0.0860 C.ar    1  UNL1        0.0893
     21  C14       -3.2520   -1.0320    0.9230 C.ar    1  UNL1       -0.0358
     22  C15       -3.2830   -0.4260    2.1610 C.ar    1  UNL1       -0.0597
     23  C16       -4.0870    0.6780    2.4020 C.ar    1  UNL1       -0.0582
     24  C17       -4.8710    1.1820    1.3880 C.ar    1  UNL1       -0.0183
     25  C18       -4.8600    0.5880    0.1220 C.ar    1  UNL1        0.1391
     26  O5        -5.6690    1.1390   -0.8580 O.3     1  UNL1       -0.5049
     27  C19       -0.3640   -1.0840   -1.1600 C.ar    1  UNL1       -0.0230
     28 H           2.8212    1.2843   -0.7583 H       1  UNL1        0.1552
     29 H           3.2518   -0.9216    2.1051 H       1  UNL1        0.0637
     30 H           5.0112   -0.6417    3.7414 H       1  UNL1        0.0618
     31 H           6.6080    1.1574    3.5581 H       1  UNL1        0.0619
     32 H           6.4047    2.6774    1.6874 H       1  UNL1        0.0655
     33 H           3.9412    2.5053   -0.8447 H       1  UNL1        0.2922
     34 H           1.8565    1.0138   -2.4748 H       1  UNL1        0.0625
     35 H           0.1740    0.9861   -4.2414 H       1  UNL1        0.0618
     36 H          -1.8022   -0.3410   -4.0201 H       1  UNL1        0.0637
     37 H          -4.8211   -0.9926   -1.9338 H       1  UNL1        0.1738
     38 H          -2.6508   -1.8536    0.7538 H       1  UNL1        0.0638
     39 H          -2.6967   -0.8011    2.9229 H       1  UNL1        0.0618
     40 H          -4.0978    1.1190    3.3350 H       1  UNL1        0.0619
     41 H          -5.4705    2.0034    1.5636 H       1  UNL1        0.0655
     42 H          -5.6851    0.7651   -1.7170 H       1  UNL1        0.2922
     43 H          -0.5031   -1.6508   -0.3089 H       1  UNL1        0.0645
@<TRIPOS>BOND
     1     1     2    2
     2     2     3   am
     3     2    11    1
     4     3     4    1
     5     4     5   ar
     6     4     9   ar
     7     5     6   ar
     8     6     7   ar
     9     7     8   ar
    10     8     9   ar
    11     9    10    1
    12    11    12   ar
    13    11    27   ar
    14    12    13   ar
    15    13    14   ar
    16    14    15   ar
    17    15    16    1
    18    15    27   ar
    19    16    17    2
    20    16    18    2
    21    16    19    1
    22    19    20    1
    23    20    21   ar
    24    20    25   ar
    25    21    22   ar
    26    22    23   ar
    27    23    24   ar
    28    24    25   ar
    29    25    26    1
    30     3    28    1
    31     5    29    1
    32     6    30    1
    33     7    31    1
    34     8    32    1
    35    10    33    1
    36    12    34    1
    37    13    35    1
    38    14    36    1
    39    19    37    1
    40    21    38    1
    41    22    39    1
    42    23    40    1
    43    24    41    1
    44    26    42    1
    45    27    43    1
@<TRIPOS>MOLECULE
../data/bude_mols_rdkit_confs2/molecule_29.pdb
 43 45 0 0 0
SMALL
GASTEIGER

@<TRIPOS>ATOM
      1  O1         2.0590    1.6370    0.3710 O.2     1  UNL1       -0.2699
      2  C1         2.0750    0.5390   -0.2320 C.2     1  UNL1        0.2484
      3  N1         3.2690   -0.2010   -0.2980 N.am    1  UNL1       -0.2786
      4  C2         4.5270    0.1450    0.2560 C.ar    1  UNL1        0.0756
      5  C3         4.7880    1.2910    0.9650 C.ar    1  UNL1       -0.0369
      6  C4         6.0460    1.6020    1.5000 C.ar    1  UNL1       -0.0598
      7  C5         7.0790    0.7370    1.3190 C.ar    1  UNL1       -0.0582
      8  C6         6.8710   -0.4190    0.6200 C.ar    1  UNL1       -0.0183
      9  C7         5.5980   -0.7150    0.0890 C.ar    1  UNL1        0.1380
     10  O2         5.5010   -1.8950   -0.5920 O.3     1  UNL1       -0.5049
     11  C8         0.8160    0.0700   -0.8550 C.ar    1  UNL1        0.0389
     12  C9         0.6490   -1.1720   -1.4050 C.ar    1  UNL1       -0.0495
     13  C10       -0.5680   -1.5540   -1.9830 C.ar    1  UNL1       -0.0592
     14  C11       -1.6270   -0.6980   -2.0130 C.ar    1  UNL1       -0.0350
     15  C12       -1.4880    0.5570   -1.4660 C.ar    1  UNL1        0.1092
     16  S1        -2.8070    1.6940   -1.4690 S.O2    1  UNL1        0.0725
     17  O3        -2.2760    3.1070   -1.6480 O.2     1  UNL1       -0.1500
     18  O4        -3.7430    1.4570   -2.6160 O.2     1  UNL1       -0.1500
     19  N2        -3.7120    1.5970   -0.0100 N.pl3   1  UNL1       -0.2127
     20  C13       -4.3990    0.4510    0.4230 C.ar    1  UNL1        0.0893
     21  C14       -4.8210   -0.4790   -0.4950 C.ar    1  UNL1       -0.0358
     22  C15       -5.5120   -1.6020   -0.0450 C.ar    1  UNL1       -0.0597
     23  C16       -5.7750   -1.7920    1.2920 C.ar    1  UNL1       -0.0582
     24  C17       -5.3490   -0.8560    2.2100 C.ar    1  UNL1       -0.0183
     25  C18       -4.6600    0.2620    1.7530 C.ar    1  UNL1        0.1391
     26  O5        -4.2490    1.1750    2.6910 O.3     1  UNL1       -0.5049
     27  C19       -0.2690    0.9200   -0.8960 C.ar    1  UNL1       -0.0230
     28 H           3.2263   -1.0561   -0.7840 H       1  UNL1        0.1552
     29 H           4.0162    1.9601    1.1122 H       1  UNL1        0.0637
     30 H           6.1864    2.4788    2.0259 H       1  UNL1        0.0618
     31 H           8.0115    0.9512    1.7057 H       1  UNL1        0.0619
     32 H           7.6509   -1.0801    0.4797 H       1  UNL1        0.0655
     33 H           4.6830   -2.1519   -0.9701 H       1  UNL1        0.2922
     34 H           1.4354   -1.8402   -1.3936 H       1  UNL1        0.0625
     35 H          -0.6637   -2.4968   -2.3917 H       1  UNL1        0.0618
     36 H          -2.5211   -0.9866   -2.4400 H       1  UNL1        0.0637
     37 H          -3.7512    2.3987    0.5601 H       1  UNL1        0.1738
     38 H          -4.6296   -0.3484   -1.5007 H       1  UNL1        0.0638
     39 H          -5.8330   -2.3055   -0.7284 H       1  UNL1        0.0618
     40 H          -6.2883   -2.6305    1.6059 H       1  UNL1        0.0619
     41 H          -5.5377   -0.9826    3.2167 H       1  UNL1        0.0655
     42 H          -3.7816    1.9422    2.4247 H       1  UNL1        0.2922
     43 H          -0.1746    1.8632   -0.4881 H       1  UNL1        0.0645
@<TRIPOS>BOND
     1     1     2    2
     2     2     3   am
     3     2    11    1
     4     3     4    1
     5     4     5   ar
     6     4     9   ar
     7     5     6   ar
     8     6     7   ar
     9     7     8   ar
    10     8     9   ar
    11     9    10    1
    12    11    12   ar
    13    11    27   ar
    14    12    13   ar
    15    13    14   ar
    16    14    15   ar
    17    15    16    1
    18    15    27   ar
    19    16    17    2
    20    16    18    2
    21    16    19    1
    22    19    20    1
    23    20    21   ar
    24    20    25   ar
    25    21    22   ar
    26    22    23   ar
    27    23    24   ar
    28    24    25   ar
    29    25    26    1
    30     3    28    1
    31     5    29    1
    32     6    30    1
    33     7    31    1
    34     8    32    1
    35    10    33    1
    36    12    34    1
    37    13    35    1
    38    14    36    1
    39    19    37    1
    40    21    38    1
    41    22    39    1
    42    23    40    1
    43    24    41    1
    44    26    42    1
    45    27    43    1
@<TRIPOS>MOLECULE
../data/bude_mols_rdkit_confs2/molecule_29.pdb
 43 45 0 0 0
SMALL
GASTEIGER

@<TRIPOS>ATOM
      1  O1        -2.8040    2.3480   -0.6040 O.2     1  UNL1       -0.2699
      2  C1        -2.2490    1.3520   -0.0940 C.2     1  UNL1        0.2484
      3  N1        -2.9190    0.1380   -0.1150 N.am    1  UNL1       -0.2786
      4  C2        -4.1850   -0.2000   -0.6380 C.ar    1  UNL1        0.0756
      5  C3        -4.9670    0.7470   -1.2460 C.ar    1  UNL1       -0.0369
      6  C4        -6.2230    0.4250   -1.7680 C.ar    1  UNL1       -0.0598
      7  C5        -6.7000   -0.8610   -1.6790 C.ar    1  UNL1       -0.0582
      8  C6        -5.8980   -1.8070   -1.0610 C.ar    1  UNL1       -0.0183
      9  C7        -4.6660   -1.5020   -0.5470 C.ar    1  UNL1        0.1380
     10  O2        -3.9020   -2.4620    0.0560 O.3     1  UNL1       -0.5049
     11  C8        -0.9120    1.5520    0.4960 C.ar    1  UNL1        0.0389
     12  C9        -0.4270    2.8590    0.5740 C.ar    1  UNL1       -0.0495
     13  C10        0.8180    3.1070    1.1140 C.ar    1  UNL1       -0.0592
     14  C11        1.6070    2.0820    1.5860 C.ar    1  UNL1       -0.0350
     15  C12        1.1360    0.7800    1.5130 C.ar    1  UNL1        0.1092
     16  S1         2.1020   -0.5340    2.0960 S.O2    1  UNL1        0.0725
     17  O3         1.2550   -1.4920    2.9220 O.2     1  UNL1       -0.1500
     18  O4         3.1500   -0.0090    3.0560 O.2     1  UNL1       -0.1500
     19  N2         2.9150   -1.4340    0.9030 N.pl3   1  UNL1       -0.2127
     20  C13        3.8860   -0.9250    0.0180 C.ar    1  UNL1        0.0893
     21  C14        3.7360    0.2350   -0.6860 C.ar    1  UNL1       -0.0358
     22  C15        4.7090    0.7070   -1.5740 C.ar    1  UNL1       -0.0597
     23  C16        5.8540    0.0050   -1.7620 C.ar    1  UNL1       -0.0582
     24  C17        6.0420   -1.1710   -1.0710 C.ar    1  UNL1       -0.0183
     25  C18        5.0840   -1.6220   -0.2050 C.ar    1  UNL1        0.1391
     26  O5         5.2930   -2.8100    0.4830 O.3     1  UNL1       -0.5049
     27  C19       -0.1300    0.5330    0.9630 C.ar    1  UNL1       -0.0230
     28 H          -2.4324   -0.6090    0.3027 H       1  UNL1        0.1552
     29 H          -4.6218    1.7168   -1.3199 H       1  UNL1        0.0637
     30 H          -6.7940    1.1552   -2.2217 H       1  UNL1        0.0618
     31 H          -7.6252   -1.1137   -2.0600 H       1  UNL1        0.0619
     32 H          -6.2418   -2.7771   -0.9853 H       1  UNL1        0.0655
     33 H          -3.0605   -2.2410    0.4039 H       1  UNL1        0.2922
     34 H          -1.0020    3.6423    0.2264 H       1  UNL1        0.0625
     35 H           1.1641    4.0779    1.1651 H       1  UNL1        0.0618
     36 H           2.5363    2.2802    1.9886 H       1  UNL1        0.0637
     37 H           2.6884   -2.3889    0.8246 H       1  UNL1        0.1738
     38 H           2.8720    0.7848   -0.5584 H       1  UNL1        0.0638
     39 H           4.5552    1.5897   -2.0861 H       1  UNL1        0.0618
     40 H           6.5757    0.3481   -2.4151 H       1  UNL1        0.0619
     41 H           6.9089   -1.7142   -1.2069 H       1  UNL1        0.0655
     42 H           4.6427   -3.1272    1.0784 H       1  UNL1        0.2922
     43 H          -0.4780   -0.4371    0.9098 H       1  UNL1        0.0645
@<TRIPOS>BOND
     1     1     2    2
     2     2     3   am
     3     2    11    1
     4     3     4    1
     5     4     5   ar
     6     4     9   ar
     7     5     6   ar
     8     6     7   ar
     9     7     8   ar
    10     8     9   ar
    11     9    10    1
    12    11    12   ar
    13    11    27   ar
    14    12    13   ar
    15    13    14   ar
    16    14    15   ar
    17    15    16    1
    18    15    27   ar
    19    16    17    2
    20    16    18    2
    21    16    19    1
    22    19    20    1
    23    20    21   ar
    24    20    25   ar
    25    21    22   ar
    26    22    23   ar
    27    23    24   ar
    28    24    25   ar
    29    25    26    1
    30     3    28    1
    31     5    29    1
    32     6    30    1
    33     7    31    1
    34     8    32    1
    35    10    33    1
    36    12    34    1
    37    13    35    1
    38    14    36    1
    39    19    37    1
    40    21    38    1
    41    22    39    1
    42    23    40    1
    43    24    41    1
    44    26    42    1
    45    27    43    1
@<TRIPOS>MOLECULE
../data/bude_mols_rdkit_confs2/molecule_29.pdb
 43 45 0 0 0
SMALL
GASTEIGER

@<TRIPOS>ATOM
      1  O1         2.6360    2.2100   -1.2020 O.2     1  UNL1       -0.2699
      2  C1         2.1810    1.3050   -0.4810 C.2     1  UNL1        0.2484
      3  N1         2.9550    0.1440   -0.2440 N.am    1  UNL1       -0.2786
      4  C2         4.2440   -0.1400   -0.7440 C.ar    1  UNL1        0.0756
      5  C3         4.9880    0.6730   -1.5630 C.ar    1  UNL1       -0.0369
      6  C4         6.2620    0.3400   -2.0290 C.ar    1  UNL1       -0.0598
      7  C5         6.8400   -0.8530   -1.6760 C.ar    1  UNL1       -0.0582
      8  C6         6.1170   -1.6790   -0.8610 C.ar    1  UNL1       -0.0183
      9  C7         4.8340   -1.3440   -0.3910 C.ar    1  UNL1        0.1380
     10  O2         4.1800   -2.2380    0.4270 O.3     1  UNL1       -0.5049
     11  C8         0.8490    1.5020    0.0880 C.ar    1  UNL1        0.0389
     12  C9         0.2150    2.7360   -0.0870 C.ar    1  UNL1       -0.0495
     13  C10       -1.0270    3.0110    0.4050 C.ar    1  UNL1       -0.0592
     14  C11       -1.6800    2.0400    1.0980 C.ar    1  UNL1       -0.0350
     15  C12       -1.1300    0.8060    1.3140 C.ar    1  UNL1        0.1092
     16  S1        -1.9210   -0.4640    2.1870 S.O2    1  UNL1        0.0725
     17  O3        -0.8540   -1.2810    2.8560 O.2     1  UNL1       -0.1500
     18  O4        -2.7580    0.1270    3.2940 O.2     1  UNL1       -0.1500
     19  N2        -2.8460   -1.5120    1.1710 N.pl3   1  UNL1       -0.2127
     20  C13       -3.9410   -1.0600    0.4020 C.ar    1  UNL1        0.0893
     21  C14       -4.6560    0.0840    0.7850 C.ar    1  UNL1       -0.0358
     22  C15       -5.7290    0.5440    0.0770 C.ar    1  UNL1       -0.0597
     23  C16       -6.1400   -0.1220   -1.0550 C.ar    1  UNL1       -0.0582
     24  C17       -5.4740   -1.2320   -1.4580 C.ar    1  UNL1       -0.0183
     25  C18       -4.3760   -1.6990   -0.7300 C.ar    1  UNL1        0.1391
     26  O5        -3.7110   -2.8390   -1.1680 O.3     1  UNL1       -0.5049
     27  C19        0.1440    0.5700    0.7910 C.ar    1  UNL1       -0.0230
     28 H           2.5491   -0.5419    0.3340 H       1  UNL1        0.1552
     29 H           4.5844    1.5785   -1.8496 H       1  UNL1        0.0637
     30 H           6.7714    0.9952   -2.6424 H       1  UNL1        0.0618
     31 H           7.7800   -1.1157   -2.0112 H       1  UNL1        0.0619
     32 H           6.5282   -2.5828   -0.5798 H       1  UNL1        0.0655
     33 H           3.3247   -2.0364    0.7521 H       1  UNL1        0.2922
     34 H           0.7100    3.4731   -0.6130 H       1  UNL1        0.0625
     35 H          -1.4614    3.9350    0.2548 H       1  UNL1        0.0618
     36 H          -2.6204    2.2403    1.4729 H       1  UNL1        0.0637
     37 H          -2.5993   -2.4641    1.1263 H       1  UNL1        0.1738
     38 H          -4.3610    0.5958    1.6312 H       1  UNL1        0.0638
     39 H          -6.2309    1.3896    0.3902 H       1  UNL1        0.0618
     40 H          -6.9503    0.2215   -1.5939 H       1  UNL1        0.0619
     41 H          -5.7791   -1.7345   -2.3062 H       1  UNL1        0.0655
     42 H          -2.9733   -3.1637   -0.6902 H       1  UNL1        0.2922
     43 H           0.5730   -0.3560    0.9444 H       1  UNL1        0.0645
@<TRIPOS>BOND
     1     1     2    2
     2     2     3   am
     3     2    11    1
     4     3     4    1
     5     4     5   ar
     6     4     9   ar
     7     5     6   ar
     8     6     7   ar
     9     7     8   ar
    10     8     9   ar
    11     9    10    1
    12    11    12   ar
    13    11    27   ar
    14    12    13   ar
    15    13    14   ar
    16    14    15   ar
    17    15    16    1
    18    15    27   ar
    19    16    17    2
    20    16    18    2
    21    16    19    1
    22    19    20    1
    23    20    21   ar
    24    20    25   ar
    25    21    22   ar
    26    22    23   ar
    27    23    24   ar
    28    24    25   ar
    29    25    26    1
    30     3    28    1
    31     5    29    1
    32     6    30    1
    33     7    31    1
    34     8    32    1
    35    10    33    1
    36    12    34    1
    37    13    35    1
    38    14    36    1
    39    19    37    1
    40    21    38    1
    41    22    39    1
    42    23    40    1
    43    24    41    1
    44    26    42    1
    45    27    43    1
@<TRIPOS>MOLECULE
../data/bude_mols_rdkit_confs2/molecule_29.pdb
 43 45 0 0 0
SMALL
GASTEIGER

@<TRIPOS>ATOM
      1  O1        -2.0410   -0.2830   -1.4910 O.2     1  UNL1       -0.2699
      2  C1        -2.1510   -0.1100   -0.2340 C.2     1  UNL1        0.2484
      3  N1        -3.3770    0.3700    0.2520 N.am    1  UNL1       -0.2786
      4  C2        -4.5390    0.7010   -0.4730 C.ar    1  UNL1        0.0756
      5  C3        -4.6570    0.6000   -1.8280 C.ar    1  UNL1       -0.0369
      6  C4        -5.8370    0.9410   -2.5110 C.ar    1  UNL1       -0.0598
      7  C5        -6.9220    1.3940   -1.8100 C.ar    1  UNL1       -0.0582
      8  C6        -6.8410    1.5110   -0.4300 C.ar    1  UNL1       -0.0183
      9  C7        -5.6830    1.1710    0.1930 C.ar    1  UNL1        0.1380
     10  O2        -5.5920    1.2830    1.5730 O.3     1  UNL1       -0.5049
     11  C8        -0.9910   -0.4240    0.6180 C.ar    1  UNL1        0.0389
     12  C9        -0.9370    0.0160    1.9040 C.ar    1  UNL1       -0.0495
     13  C10        0.1610   -0.2870    2.7180 C.ar    1  UNL1       -0.0592
     14  C11        1.1780   -1.0430    2.1760 C.ar    1  UNL1       -0.0350
     15  C12        1.1760   -1.5150    0.8800 C.ar    1  UNL1        0.1092
     16  S1         2.4630   -2.4640    0.2130 S.O2    1  UNL1        0.0725
     17  O3         1.8920   -3.6770   -0.5190 O.2     1  UNL1       -0.1500
     18  O4         3.2460   -3.0610    1.3700 O.2     1  UNL1       -0.1500
     19  N2         3.5470   -1.6550   -0.7920 N.pl3   1  UNL1       -0.2127
     20  C13        4.3790   -0.5750   -0.4190 C.ar    1  UNL1        0.0893
     21  C14        3.9970    0.4850    0.3660 C.ar    1  UNL1       -0.0358
     22  C15        4.9010    1.4910    0.6480 C.ar    1  UNL1       -0.0597
     23  C16        6.1770    1.4450    0.1530 C.ar    1  UNL1       -0.0582
     24  C17        6.5870    0.3950   -0.6360 C.ar    1  UNL1       -0.0183
     25  C18        5.6960   -0.6080   -0.9210 C.ar    1  UNL1        0.1391
     26  O5         6.0910   -1.6750   -1.7160 O.3     1  UNL1       -0.5049
     27  C19        0.0610   -1.1850    0.1130 C.ar    1  UNL1       -0.0230
     28 H          -3.4324    0.4914    1.2274 H       1  UNL1        0.1552
     29 H          -3.8489    0.2602   -2.3726 H       1  UNL1        0.0637
     30 H          -5.8854    0.8502   -3.5379 H       1  UNL1        0.0618
     31 H          -7.7925    1.6462   -2.3037 H       1  UNL1        0.0619
     32 H          -7.6486    1.8513    0.1150 H       1  UNL1        0.0655
     33 H          -4.7967    1.0505    2.0105 H       1  UNL1        0.2922
     34 H          -1.7139    0.5793    2.2838 H       1  UNL1        0.0625
     35 H           0.2075    0.0455    3.6939 H       1  UNL1        0.0618
     36 H           1.9878   -1.2690    2.7745 H       1  UNL1        0.0637
     37 H           3.6063   -1.9631   -1.7252 H       1  UNL1        0.1738
     38 H           3.0378    0.5300    0.7441 H       1  UNL1        0.0638
     39 H           4.6113    2.2863    1.2385 H       1  UNL1        0.0618
     40 H           6.8381    2.2060    0.3741 H       1  UNL1        0.0619
     41 H           7.5493    0.3627   -1.0073 H       1  UNL1        0.0655
     42 H           5.4851   -2.3621   -1.9129 H       1  UNL1        0.2922
     43 H           0.0126   -1.5158   -0.8634 H       1  UNL1        0.0645
@<TRIPOS>BOND
     1     1     2    2
     2     2     3   am
     3     2    11    1
     4     3     4    1
     5     4     5   ar
     6     4     9   ar
     7     5     6   ar
     8     6     7   ar
     9     7     8   ar
    10     8     9   ar
    11     9    10    1
    12    11    12   ar
    13    11    27   ar
    14    12    13   ar
    15    13    14   ar
    16    14    15   ar
    17    15    16    1
    18    15    27   ar
    19    16    17    2
    20    16    18    2
    21    16    19    1
    22    19    20    1
    23    20    21   ar
    24    20    25   ar
    25    21    22   ar
    26    22    23   ar
    27    23    24   ar
    28    24    25   ar
    29    25    26    1
    30     3    28    1
    31     5    29    1
    32     6    30    1
    33     7    31    1
    34     8    32    1
    35    10    33    1
    36    12    34    1
    37    13    35    1
    38    14    36    1
    39    19    37    1
    40    21    38    1
    41    22    39    1
    42    23    40    1
    43    24    41    1
    44    26    42    1
    45    27    43    1
@<TRIPOS>MOLECULE
../data/bude_mols_rdkit_confs2/molecule_29.pdb
 43 45 0 0 0
SMALL
GASTEIGER

@<TRIPOS>ATOM
      1  O1         1.7420   -0.4900   -1.6650 O.2     1  UNL1       -0.2699
      2  C1         1.9790   -0.4150   -0.4560 C.2     1  UNL1        0.2484
      3  N1         3.0700   -1.1000    0.1320 N.am    1  UNL1       -0.2786
      4  C2         3.9890   -1.9310   -0.5450 C.ar    1  UNL1        0.0756
      5  C3         3.9380   -2.2350   -1.8760 C.ar    1  UNL1       -0.0369
      6  C4         4.8910   -3.0720   -2.4370 C.ar    1  UNL1       -0.0598
      7  C5         5.9100   -3.6260   -1.7100 C.ar    1  UNL1       -0.0582
      8  C6         5.9670   -3.3250   -0.3730 C.ar    1  UNL1       -0.0183
      9  C7         5.0220   -2.4870    0.2130 C.ar    1  UNL1        0.1380
     10  O2         5.1870   -2.2610    1.5530 O.3     1  UNL1       -0.5049
     11  C8         1.0840    0.4230    0.3730 C.ar    1  UNL1        0.0389
     12  C9         0.9800    0.2930    1.7310 C.ar    1  UNL1       -0.0495
     13  C10        0.1350    1.0920    2.4930 C.ar    1  UNL1       -0.0592
     14  C11       -0.6220    2.0430    1.8700 C.ar    1  UNL1       -0.0350
     15  C12       -0.5540    2.2130    0.5100 C.ar    1  UNL1        0.1092
     16  S1        -1.5230    3.4380   -0.3240 S.O2    1  UNL1        0.0725
     17  O3        -0.6540    3.9750   -1.4210 O.2     1  UNL1       -0.1500
     18  O4        -1.7820    4.5790    0.6220 O.2     1  UNL1       -0.1500
     19  N2        -2.9460    2.7970   -0.9870 N.pl3   1  UNL1       -0.2127
     20  C13       -3.9970    2.1930   -0.2870 C.ar    1  UNL1        0.0893
     21  C14       -4.1930    2.3910    1.0830 C.ar    1  UNL1       -0.0358
     22  C15       -5.2580    1.7720    1.7160 C.ar    1  UNL1       -0.0597
     23  C16       -6.1470    0.9590    1.0560 C.ar    1  UNL1       -0.0582
     24  C17       -5.9690    0.7500   -0.3100 C.ar    1  UNL1       -0.0183
     25  C18       -4.8930    1.3790   -0.9350 C.ar    1  UNL1        0.1391
     26  O5        -4.6930    1.1820   -2.3090 O.3     1  UNL1       -0.5049
     27  C19        0.3010    1.3950   -0.2030 C.ar    1  UNL1       -0.0230
     28 H           3.1995   -0.9864    1.1013 H       1  UNL1        0.1552
     29 H           3.1883   -1.8407   -2.4655 H       1  UNL1        0.0637
     30 H           4.8293   -3.2861   -3.4447 H       1  UNL1        0.0618
     31 H           6.6078   -4.2457   -2.1505 H       1  UNL1        0.0619
     32 H           6.7210   -3.7253    0.2068 H       1  UNL1        0.0655
     33 H           4.5871   -1.7066    2.0120 H       1  UNL1        0.2922
     34 H           1.5494   -0.4241    2.2070 H       1  UNL1        0.0625
     35 H           0.0805    0.9681    3.5161 H       1  UNL1        0.0618
     36 H          -1.2520    2.6402    2.4281 H       1  UNL1        0.0637
     37 H          -3.0430    2.8557   -1.9650 H       1  UNL1        0.1738
     38 H          -3.5490    2.9938    1.6186 H       1  UNL1        0.0638
     39 H          -5.3894    1.9284    2.7276 H       1  UNL1        0.0618
     40 H          -6.9291    0.5131    1.5605 H       1  UNL1        0.0619
     41 H          -6.6147    0.1472   -0.8436 H       1  UNL1        0.0655
     42 H          -3.9740    1.5984   -2.7422 H       1  UNL1        0.2922
     43 H           0.3549    1.5208   -1.2259 H       1  UNL1        0.0645
@<TRIPOS>BOND
     1     1     2    2
     2     2     3   am
     3     2    11    1
     4     3     4    1
     5     4     5   ar
     6     4     9   ar
     7     5     6   ar
     8     6     7   ar
     9     7     8   ar
    10     8     9   ar
    11     9    10    1
    12    11    12   ar
    13    11    27   ar
    14    12    13   ar
    15    13    14   ar
    16    14    15   ar
    17    15    16    1
    18    15    27   ar
    19    16    17    2
    20    16    18    2
    21    16    19    1
    22    19    20    1
    23    20    21   ar
    24    20    25   ar
    25    21    22   ar
    26    22    23   ar
    27    23    24   ar
    28    24    25   ar
    29    25    26    1
    30     3    28    1
    31     5    29    1
    32     6    30    1
    33     7    31    1
    34     8    32    1
    35    10    33    1
    36    12    34    1
    37    13    35    1
    38    14    36    1
    39    19    37    1
    40    21    38    1
    41    22    39    1
    42    23    40    1
    43    24    41    1
    44    26    42    1
    45    27    43    1
@<TRIPOS>MOLECULE
../data/bude_mols_rdkit_confs2/molecule_29.pdb
 43 45 0 0 0
SMALL
GASTEIGER

@<TRIPOS>ATOM
      1  O1        -2.4280   -0.5230   -1.5330 O.2     1  UNL1       -0.2699
      2  C1        -2.1800   -0.4650   -0.2900 C.2     1  UNL1        0.2484
      3  N1        -3.1530    0.1080    0.5590 N.am    1  UNL1       -0.2786
      4  C2        -4.4090    0.6420    0.1910 C.ar    1  UNL1        0.0756
      5  C3        -4.8930    0.6880   -1.0900 C.ar    1  UNL1       -0.0369
      6  C4        -6.1510    1.2360   -1.3600 C.ar    1  UNL1       -0.0598
      7  C5        -6.9480    1.7470   -0.3680 C.ar    1  UNL1       -0.0582
      8  C6        -6.4740    1.7060    0.9100 C.ar    1  UNL1       -0.0183
      9  C7        -5.2120    1.1570    1.1910 C.ar    1  UNL1        0.1380
     10  O2        -4.8680    1.1840    2.5220 O.3     1  UNL1       -0.5049
     11  C8        -0.8910   -0.9980    0.2040 C.ar    1  UNL1        0.0389
     12  C9        -0.6710   -1.1980    1.5310 C.ar    1  UNL1       -0.0495
     13  C10        0.5360   -1.6910    1.9910 C.ar    1  UNL1       -0.0592
     14  C11        1.5160   -1.9790    1.0840 C.ar    1  UNL1       -0.0350
     15  C12        1.3050   -1.7810   -0.2620 C.ar    1  UNL1        0.1092
     16  S1         2.6180   -2.1690   -1.3590 S.O2    1  UNL1        0.0725
     17  O3         3.4310   -3.3220   -0.7970 O.2     1  UNL1       -0.1500
     18  O4         1.9720   -2.6920   -2.6130 O.2     1  UNL1       -0.1500
     19  N2         3.5810   -0.8190   -1.7540 N.pl3   1  UNL1       -0.2127
     20  C13        4.2910   -0.1340   -0.7470 C.ar    1  UNL1        0.0893
     21  C14        4.7450   -0.7490    0.3920 C.ar    1  UNL1       -0.0358
     22  C15        5.4560   -0.0650    1.3720 C.ar    1  UNL1       -0.0597
     23  C16        5.7240    1.2720    1.2140 C.ar    1  UNL1       -0.0582
     24  C17        5.2840    1.9190    0.0850 C.ar    1  UNL1       -0.0183
     25  C18        4.5840    1.2290   -0.8720 C.ar    1  UNL1        0.1391
     26  O5         4.1140    1.8380   -2.0370 O.3     1  UNL1       -0.5049
     27  C19        0.1080   -1.2940   -0.6910 C.ar    1  UNL1       -0.0230
     28 H          -2.9306    0.1390    1.5176 H       1  UNL1        0.1552
     29 H          -4.3227    0.3140   -1.8645 H       1  UNL1        0.0637
     30 H          -6.4895    1.2564   -2.3347 H       1  UNL1        0.0618
     31 H          -7.8744    2.1487   -0.5812 H       1  UNL1        0.0619
     32 H          -7.0492    2.0827    1.6796 H       1  UNL1        0.0655
     33 H          -4.0426    0.8382    2.7997 H       1  UNL1        0.2922
     34 H          -1.4188   -0.9777    2.2072 H       1  UNL1        0.0625
     35 H           0.6935   -1.8386    3.0002 H       1  UNL1        0.0618
     36 H           2.4226   -2.3483    1.4106 H       1  UNL1        0.0637
     37 H           3.6416   -0.5166   -2.6889 H       1  UNL1        0.1738
     38 H           4.5523   -1.7539    0.5262 H       1  UNL1        0.0638
     39 H           5.7814   -0.5614    2.2162 H       1  UNL1        0.0618
     40 H           6.2512    1.7864    1.9368 H       1  UNL1        0.0619
     41 H           5.4800    2.9241   -0.0433 H       1  UNL1        0.0655
     42 H           3.6391    1.3356   -2.6695 H       1  UNL1        0.2922
     43 H          -0.0504   -1.1456   -1.6999 H       1  UNL1        0.0645
@<TRIPOS>BOND
     1     1     2    2
     2     2     3   am
     3     2    11    1
     4     3     4    1
     5     4     5   ar
     6     4     9   ar
     7     5     6   ar
     8     6     7   ar
     9     7     8   ar
    10     8     9   ar
    11     9    10    1
    12    11    12   ar
    13    11    27   ar
    14    12    13   ar
    15    13    14   ar
    16    14    15   ar
    17    15    16    1
    18    15    27   ar
    19    16    17    2
    20    16    18    2
    21    16    19    1
    22    19    20    1
    23    20    21   ar
    24    20    25   ar
    25    21    22   ar
    26    22    23   ar
    27    23    24   ar
    28    24    25   ar
    29    25    26    1
    30     3    28    1
    31     5    29    1
    32     6    30    1
    33     7    31    1
    34     8    32    1
    35    10    33    1
    36    12    34    1
    37    13    35    1
    38    14    36    1
    39    19    37    1
    40    21    38    1
    41    22    39    1
    42    23    40    1
    43    24    41    1
    44    26    42    1
    45    27    43    1
@<TRIPOS>MOLECULE
../data/bude_mols_rdkit_confs2/molecule_29.pdb
 43 45 0 0 0
SMALL
GASTEIGER

@<TRIPOS>ATOM
      1  O1        -1.3660    0.9950    0.9540 O.2     1  UNL1       -0.2699
      2  C1        -1.6530    0.2070    0.0360 C.2     1  UNL1        0.2484
      3  N1        -2.7250    0.4920   -0.8300 N.am    1  UNL1       -0.2786
      4  C2        -3.5790    1.6070   -0.8140 C.ar    1  UNL1        0.0756
      5  C3        -3.4760    2.6150    0.0920 C.ar    1  UNL1       -0.0369
      6  C4        -4.3720    3.7030    0.0430 C.ar    1  UNL1       -0.0598
      7  C5        -5.3620    3.7900   -0.8970 C.ar    1  UNL1       -0.0582
      8  C6        -5.4670    2.7720   -1.8130 C.ar    1  UNL1       -0.0183
      9  C7        -4.5970    1.7070   -1.7720 C.ar    1  UNL1        0.1380
     10  O2        -4.6900    0.6660   -2.6940 O.3     1  UNL1       -0.5049
     11  C8        -0.8450   -1.0250   -0.1220 C.ar    1  UNL1        0.0389
     12  C9        -0.9320   -1.8540   -1.2070 C.ar    1  UNL1       -0.0495
     13  C10       -0.1440   -3.0070   -1.2930 C.ar    1  UNL1       -0.0592
     14  C11        0.7410   -3.3200   -0.2680 C.ar    1  UNL1       -0.0350
     15  C12        0.8390   -2.4940    0.8300 C.ar    1  UNL1        0.1092
     16  S1         1.9510   -2.9140    2.0990 S.O2    1  UNL1        0.0725
     17  O3         1.5370   -2.3550    3.4300 O.2     1  UNL1       -0.1500
     18  O4         2.0030   -4.4300    2.1490 O.2     1  UNL1       -0.1500
     19  N2         3.5330   -2.2840    1.7380 N.pl3   1  UNL1       -0.2127
     20  C13        3.8280   -0.9230    1.5940 C.ar    1  UNL1        0.0893
     21  C14        3.0680    0.0880    2.1740 C.ar    1  UNL1       -0.0358
     22  C15        3.3710    1.4260    2.0390 C.ar    1  UNL1       -0.0597
     23  C16        4.4720    1.8020    1.3010 C.ar    1  UNL1       -0.0582
     24  C17        5.2400    0.8340    0.7180 C.ar    1  UNL1       -0.0183
     25  C18        4.9170   -0.5170    0.8660 C.ar    1  UNL1        0.1391
     26  O5         5.7430   -1.4270    0.2450 O.3     1  UNL1       -0.5049
     27  C19        0.0580   -1.3750    0.8880 C.ar    1  UNL1       -0.0230
     28 H          -2.8979   -0.1731   -1.5350 H       1  UNL1        0.1552
     29 H          -2.7415    2.5842    0.8163 H       1  UNL1        0.0637
     30 H          -4.2776    4.4587    0.7395 H       1  UNL1        0.0618
     31 H          -6.0087    4.5940   -0.9172 H       1  UNL1        0.0619
     32 H          -6.2026    2.8062   -2.5360 H       1  UNL1        0.0655
     33 H          -4.0894   -0.0520   -2.6521 H       1  UNL1        0.2922
     34 H          -1.5869   -1.6261   -1.9713 H       1  UNL1        0.0625
     35 H          -0.2198   -3.6243   -2.1165 H       1  UNL1        0.0618
     36 H           1.3236   -4.1696   -0.3294 H       1  UNL1        0.0637
     37 H           4.2696   -2.9278    1.6277 H       1  UNL1        0.1738
     38 H           2.2399   -0.1758    2.7305 H       1  UNL1        0.0638
     39 H           2.7773    2.1410    2.4876 H       1  UNL1        0.0618
     40 H           4.7129    2.7994    1.1903 H       1  UNL1        0.0619
     41 H           6.0670    1.1036    0.1627 H       1  UNL1        0.0655
     42 H           5.5665   -2.3445    0.3159 H       1  UNL1        0.2922
     43 H           0.1374   -0.7604    1.7132 H       1  UNL1        0.0645
@<TRIPOS>BOND
     1     1     2    2
     2     2     3   am
     3     2    11    1
     4     3     4    1
     5     4     5   ar
     6     4     9   ar
     7     5     6   ar
     8     6     7   ar
     9     7     8   ar
    10     8     9   ar
    11     9    10    1
    12    11    12   ar
    13    11    27   ar
    14    12    13   ar
    15    13    14   ar
    16    14    15   ar
    17    15    16    1
    18    15    27   ar
    19    16    17    2
    20    16    18    2
    21    16    19    1
    22    19    20    1
    23    20    21   ar
    24    20    25   ar
    25    21    22   ar
    26    22    23   ar
    27    23    24   ar
    28    24    25   ar
    29    25    26    1
    30     3    28    1
    31     5    29    1
    32     6    30    1
    33     7    31    1
    34     8    32    1
    35    10    33    1
    36    12    34    1
    37    13    35    1
    38    14    36    1
    39    19    37    1
    40    21    38    1
    41    22    39    1
    42    23    40    1
    43    24    41    1
    44    26    42    1
    45    27    43    1
@<TRIPOS>MOLECULE
../data/bude_mols_rdkit_confs2/molecule_29.pdb
 43 45 0 0 0
SMALL
GASTEIGER

@<TRIPOS>ATOM
      1  O1        -2.0860    0.7340    1.0720 O.2     1  UNL1       -0.2699
      2  C1        -1.8440    0.8930   -0.1340 C.2     1  UNL1        0.2484
      3  N1        -2.6550    1.7290   -0.9310 N.am    1  UNL1       -0.2786
      4  C2        -3.7870    2.4580   -0.5500 C.ar    1  UNL1        0.0756
      5  C3        -4.3120    2.3910    0.7090 C.ar    1  UNL1       -0.0369
      6  C4        -5.4580    3.0920    1.0290 C.ar    1  UNL1       -0.0598
      7  C5        -6.0660    3.8590    0.0710 C.ar    1  UNL1       -0.0582
      8  C6        -5.5470    3.9380   -1.2030 C.ar    1  UNL1       -0.0183
      9  C7        -4.4030    3.2440   -1.5350 C.ar    1  UNL1        0.1380
     10  O2        -3.9050    3.3300   -2.7790 O.3     1  UNL1       -0.5049
     11  C8        -0.7100    0.2130   -0.7830 C.ar    1  UNL1        0.0389
     12  C9        -0.0950    0.6830   -1.9090 C.ar    1  UNL1       -0.0495
     13  C10        0.9600   -0.0140   -2.5190 C.ar    1  UNL1       -0.0592
     14  C11        1.4190   -1.2030   -2.0060 C.ar    1  UNL1       -0.0350
     15  C12        0.7890   -1.6790   -0.8600 C.ar    1  UNL1        0.1092
     16  S1         1.2840   -3.1990   -0.1800 S.O2    1  UNL1        0.0725
     17  O3         0.0410   -4.0360    0.0410 O.2     1  UNL1       -0.1500
     18  O4         2.1050   -3.9810   -1.1840 O.2     1  UNL1       -0.1500
     19  N2         2.1180   -2.9970    1.2700 N.pl3   1  UNL1       -0.2127
     20  C13        3.3430   -2.3290    1.5200 C.ar    1  UNL1        0.0893
     21  C14        3.8030   -1.2340    0.8340 C.ar    1  UNL1       -0.0358
     22  C15        5.0400   -0.6430    1.1660 C.ar    1  UNL1       -0.0597
     23  C16        5.8250   -1.1370    2.1850 C.ar    1  UNL1       -0.0582
     24  C17        5.3500   -2.2570    2.8800 C.ar    1  UNL1       -0.0183
     25  C18        4.1430   -2.8270    2.5500 C.ar    1  UNL1        0.1391
     26  O5         3.6780   -3.9480    3.2570 O.3     1  UNL1       -0.5049
     27  C19       -0.2430   -0.9950   -0.2630 C.ar    1  UNL1       -0.0230
     28 H          -2.3905    1.8096   -1.8759 H       1  UNL1        0.1552
     29 H          -3.8487    1.8120    1.4268 H       1  UNL1        0.0637
     30 H          -5.8526    3.0384    1.9811 H       1  UNL1        0.0618
     31 H          -6.9229    4.3839    0.3060 H       1  UNL1        0.0619
     32 H          -6.0177    4.5204   -1.9132 H       1  UNL1        0.0655
     33 H          -3.1275    2.8588   -3.0060 H       1  UNL1        0.2922
     34 H          -0.4143    1.5734   -2.3217 H       1  UNL1        0.0625
     35 H           1.3989    0.3740   -3.3686 H       1  UNL1        0.0618
     36 H           2.1947   -1.7191   -2.4498 H       1  UNL1        0.0637
     37 H           1.6920   -3.4024    2.0595 H       1  UNL1        0.1738
     38 H           3.2379   -0.8382    0.0665 H       1  UNL1        0.0638
     39 H           5.3648    0.1789    0.6331 H       1  UNL1        0.0618
     40 H           6.7276   -0.6991    2.4269 H       1  UNL1        0.0619
     41 H           5.9116   -2.6582    3.6472 H       1  UNL1        0.0655
     42 H           2.8554   -4.3359    3.0316 H       1  UNL1        0.2922
     43 H          -0.6814   -1.3826    0.5870 H       1  UNL1        0.0645
@<TRIPOS>BOND
     1     1     2    2
     2     2     3   am
     3     2    11    1
     4     3     4    1
     5     4     5   ar
     6     4     9   ar
     7     5     6   ar
     8     6     7   ar
     9     7     8   ar
    10     8     9   ar
    11     9    10    1
    12    11    12   ar
    13    11    27   ar
    14    12    13   ar
    15    13    14   ar
    16    14    15   ar
    17    15    16    1
    18    15    27   ar
    19    16    17    2
    20    16    18    2
    21    16    19    1
    22    19    20    1
    23    20    21   ar
    24    20    25   ar
    25    21    22   ar
    26    22    23   ar
    27    23    24   ar
    28    24    25   ar
    29    25    26    1
    30     3    28    1
    31     5    29    1
    32     6    30    1
    33     7    31    1
    34     8    32    1
    35    10    33    1
    36    12    34    1
    37    13    35    1
    38    14    36    1
    39    19    37    1
    40    21    38    1
    41    22    39    1
    42    23    40    1
    43    24    41    1
    44    26    42    1
    45    27    43    1
@<TRIPOS>MOLECULE
../data/bude_mols_rdkit_confs2/molecule_29.pdb
 43 45 0 0 0
SMALL
GASTEIGER

@<TRIPOS>ATOM
      1  O1        -2.1700   -1.7300   -2.2990 O.2     1  UNL1       -0.2699
      2  C1        -1.6910   -1.2650   -1.2250 C.2     1  UNL1        0.2484
      3  N1        -2.2270   -0.0620   -0.7220 N.am    1  UNL1       -0.2786
      4  C2        -3.2620    0.7200   -1.2790 C.ar    1  UNL1        0.0756
      5  C3        -3.9540    0.4500   -2.4330 C.ar    1  UNL1       -0.0369
      6  C4        -4.9700    1.2380   -2.9590 C.ar    1  UNL1       -0.0598
      7  C5        -5.3170    2.3740   -2.2820 C.ar    1  UNL1       -0.0582
      8  C6        -4.6710    2.7080   -1.1240 C.ar    1  UNL1       -0.0183
      9  C7        -3.6500    1.8920   -0.6190 C.ar    1  UNL1        0.1380
     10  O2        -3.0400    2.2650    0.5310 O.3     1  UNL1       -0.5049
     11  C8        -0.5970   -2.0080   -0.5540 C.ar    1  UNL1        0.0389
     12  C9        -0.1900   -3.2340   -1.0670 C.ar    1  UNL1       -0.0495
     13  C10        0.8320   -3.9620   -0.4710 C.ar    1  UNL1       -0.0592
     14  C11        1.4670   -3.4770    0.6500 C.ar    1  UNL1       -0.0350
     15  C12        1.0540   -2.2690    1.1420 C.ar    1  UNL1        0.1092
     16  S1         1.8370   -1.6430    2.5610 S.O2    1  UNL1        0.0725
     17  O3         2.2150   -2.7830    3.5030 O.2     1  UNL1       -0.1500
     18  O4         0.8900   -0.7840    3.3680 O.2     1  UNL1       -0.1500
     19  N2         3.2670   -0.7600    2.1830 N.pl3   1  UNL1       -0.2127
     20  C13        3.2680    0.4130    1.3890 C.ar    1  UNL1        0.0893
     21  C14        2.1660    1.2460    1.3120 C.ar    1  UNL1       -0.0358
     22  C15        2.1490    2.4090    0.5500 C.ar    1  UNL1       -0.0597
     23  C16        3.2630    2.7790   -0.1720 C.ar    1  UNL1       -0.0582
     24  C17        4.3690    1.9600   -0.1060 C.ar    1  UNL1       -0.0183
     25  C18        4.3770    0.7900    0.6640 C.ar    1  UNL1        0.1391
     26  O5         5.5300    0.0340    0.6680 O.3     1  UNL1       -0.5049
     27  C19        0.0210   -1.5220    0.5490 C.ar    1  UNL1       -0.0230
     28 H          -1.8332    0.2720    0.1162 H       1  UNL1        0.1552
     29 H          -3.6996   -0.4057   -2.9507 H       1  UNL1        0.0637
     30 H          -5.4484    0.9739   -3.8344 H       1  UNL1        0.0618
     31 H          -6.0683    2.9809   -2.6458 H       1  UNL1        0.0619
     32 H          -4.9374    3.5673   -0.6183 H       1  UNL1        0.0655
     33 H          -2.3542    1.7371    0.8901 H       1  UNL1        0.2922
     34 H          -0.6562   -3.6108   -1.9071 H       1  UNL1        0.0625
     35 H           1.1164   -4.8702   -0.8702 H       1  UNL1        0.0618
     36 H           2.2281   -4.0062    1.1035 H       1  UNL1        0.0637
     37 H           4.1259   -1.0867    2.5362 H       1  UNL1        0.1738
     38 H           1.3187    0.9928    1.8439 H       1  UNL1        0.0638
     39 H           1.3007    2.9961    0.5251 H       1  UNL1        0.0618
     40 H           3.2686    3.6393   -0.7421 H       1  UNL1        0.0619
     41 H           5.2151    2.2157   -0.6387 H       1  UNL1        0.0655
     42 H           5.5712   -0.7549    1.1718 H       1  UNL1        0.2922
     43 H          -0.2630   -0.6142    0.9493 H       1  UNL1        0.0645
@<TRIPOS>BOND
     1     1     2    2
     2     2     3   am
     3     2    11    1
     4     3     4    1
     5     4     5   ar
     6     4     9   ar
     7     5     6   ar
     8     6     7   ar
     9     7     8   ar
    10     8     9   ar
    11     9    10    1
    12    11    12   ar
    13    11    27   ar
    14    12    13   ar
    15    13    14   ar
    16    14    15   ar
    17    15    16    1
    18    15    27   ar
    19    16    17    2
    20    16    18    2
    21    16    19    1
    22    19    20    1
    23    20    21   ar
    24    20    25   ar
    25    21    22   ar
    26    22    23   ar
    27    23    24   ar
    28    24    25   ar
    29    25    26    1
    30     3    28    1
    31     5    29    1
    32     6    30    1
    33     7    31    1
    34     8    32    1
    35    10    33    1
    36    12    34    1
    37    13    35    1
    38    14    36    1
    39    19    37    1
    40    21    38    1
    41    22    39    1
    42    23    40    1
    43    24    41    1
    44    26    42    1
    45    27    43    1
@<TRIPOS>MOLECULE
../data/bude_mols_rdkit_confs2/molecule_29.pdb
 43 45 0 0 0
SMALL
GASTEIGER

@<TRIPOS>ATOM
      1  O1        -1.2090   -0.1510    1.3910 O.2     1  UNL1       -0.2699
      2  C1        -1.5630    0.4400    0.3390 C.2     1  UNL1        0.2484
      3  N1        -2.9410    0.5440    0.0530 N.am    1  UNL1       -0.2786
      4  C2        -4.0150    0.0450    0.8280 C.ar    1  UNL1        0.0756
      5  C3        -3.9170   -0.6350    2.0110 C.ar    1  UNL1       -0.0369
      6  C4        -5.0020   -1.1070    2.7370 C.ar    1  UNL1       -0.0598
      7  C5        -6.2740   -0.8910    2.2630 C.ar    1  UNL1       -0.0582
      8  C6        -6.4240   -0.2150    1.0840 C.ar    1  UNL1       -0.0183
      9  C7        -5.3090    0.2520    0.3660 C.ar    1  UNL1        0.1380
     10  O2        -5.5790    0.9240   -0.8140 O.3     1  UNL1       -0.5049
     11  C8        -0.5280    1.0080   -0.5610 C.ar    1  UNL1        0.0389
     12  C9        -0.7980    1.3540   -1.8490 C.ar    1  UNL1       -0.0495
     13  C10        0.1700    1.8880   -2.6780 C.ar    1  UNL1       -0.0592
     14  C11        1.4430    2.0800   -2.2040 C.ar    1  UNL1       -0.0350
     15  C12        1.7390    1.7300   -0.8840 C.ar    1  UNL1        0.1092
     16  S1         3.3820    1.9860   -0.2750 S.O2    1  UNL1        0.0725
     17  O3         3.2580    2.2970    1.1740 O.2     1  UNL1       -0.1500
     18  O4         3.9180    3.2110   -0.9510 O.2     1  UNL1       -0.1500
     19  N2         4.3160    0.6430   -0.6560 N.pl3   1  UNL1       -0.2127
     20  C13        4.1220   -0.6880   -0.2270 C.ar    1  UNL1        0.0893
     21  C14        3.4050   -0.9890    0.9330 C.ar    1  UNL1       -0.0358
     22  C15        3.2040   -2.2710    1.3880 C.ar    1  UNL1       -0.0597
     23  C16        3.7350   -3.3170    0.6660 C.ar    1  UNL1       -0.0582
     24  C17        4.4480   -3.0720   -0.4820 C.ar    1  UNL1       -0.0183
     25  C18        4.6370   -1.7610   -0.9220 C.ar    1  UNL1        0.1391
     26  O5         5.3680   -1.5770   -2.0910 O.3     1  UNL1       -0.5049
     27  C19        0.7580    1.2030   -0.0870 C.ar    1  UNL1       -0.0230
     28 H          -3.1818    1.0156   -0.7770 H       1  UNL1        0.1552
     29 H          -2.9727   -0.8088    2.3893 H       1  UNL1        0.0637
     30 H          -4.8551   -1.6148    3.6234 H       1  UNL1        0.0618
     31 H          -7.0968   -1.2312    2.7849 H       1  UNL1        0.0619
     32 H          -7.3724   -0.0445    0.7146 H       1  UNL1        0.0655
     33 H          -4.8751    1.2579   -1.3346 H       1  UNL1        0.2922
     34 H          -1.7520    1.2137   -2.2168 H       1  UNL1        0.0625
     35 H          -0.0639    2.1416   -3.6506 H       1  UNL1        0.0618
     36 H           2.1732    2.4781   -2.8150 H       1  UNL1        0.0637
     37 H           5.0875    0.8023   -1.2464 H       1  UNL1        0.1738
     38 H           3.0051   -0.2086    1.4771 H       1  UNL1        0.0638
     39 H           2.6669   -2.4457    2.2517 H       1  UNL1        0.0618
     40 H           3.5967   -4.2875    0.9886 H       1  UNL1        0.0619
     41 H           4.8445   -3.8583   -1.0200 H       1  UNL1        0.0655
     42 H           5.5168   -0.7121   -2.4192 H       1  UNL1        0.2922
     43 H           0.9820    0.9459    0.8870 H       1  UNL1        0.0645
@<TRIPOS>BOND
     1     1     2    2
     2     2     3   am
     3     2    11    1
     4     3     4    1
     5     4     5   ar
     6     4     9   ar
     7     5     6   ar
     8     6     7   ar
     9     7     8   ar
    10     8     9   ar
    11     9    10    1
    12    11    12   ar
    13    11    27   ar
    14    12    13   ar
    15    13    14   ar
    16    14    15   ar
    17    15    16    1
    18    15    27   ar
    19    16    17    2
    20    16    18    2
    21    16    19    1
    22    19    20    1
    23    20    21   ar
    24    20    25   ar
    25    21    22   ar
    26    22    23   ar
    27    23    24   ar
    28    24    25   ar
    29    25    26    1
    30     3    28    1
    31     5    29    1
    32     6    30    1
    33     7    31    1
    34     8    32    1
    35    10    33    1
    36    12    34    1
    37    13    35    1
    38    14    36    1
    39    19    37    1
    40    21    38    1
    41    22    39    1
    42    23    40    1
    43    24    41    1
    44    26    42    1
    45    27    43    1
@<TRIPOS>MOLECULE
../data/bude_mols_rdkit_confs2/molecule_29.pdb
 43 45 0 0 0
SMALL
GASTEIGER

@<TRIPOS>ATOM
      1  O1         3.2010    1.7470    0.7920 O.2     1  UNL1       -0.2699
      2  C1         2.4930    0.7640    0.4810 C.2     1  UNL1        0.2484
      3  N1         2.8050    0.0230   -0.6470 N.am    1  UNL1       -0.2786
      4  C2         3.8540    0.1860   -1.5820 C.ar    1  UNL1        0.0756
      5  C3         4.7550    1.2120   -1.4350 C.ar    1  UNL1       -0.0369
      6  C4         5.7910    1.3620   -2.3710 C.ar    1  UNL1       -0.0598
      7  C5         5.9080    0.4960   -3.4220 C.ar    1  UNL1       -0.0582
      8  C6         4.9910   -0.5230   -3.5460 C.ar    1  UNL1       -0.0183
      9  C7         3.9750   -0.6970   -2.6580 C.ar    1  UNL1        0.1380
     10  O2         3.0370   -1.7060   -2.7490 O.3     1  UNL1       -0.5049
     11  C8         1.3480    0.4680    1.3740 C.ar    1  UNL1        0.0389
     12  C9         1.2010    1.1440    2.5730 C.ar    1  UNL1       -0.0495
     13  C10        0.1380    0.8780    3.4080 C.ar    1  UNL1       -0.0592
     14  C11       -0.8160   -0.0580    3.0990 C.ar    1  UNL1       -0.0350
     15  C12       -0.7000   -0.7500    1.9130 C.ar    1  UNL1        0.1092
     16  S1        -1.8570   -1.9640    1.4200 S.O2    1  UNL1        0.0725
     17  O3        -2.6210   -2.3350    2.6920 O.2     1  UNL1       -0.1500
     18  O4        -1.1560   -3.2110    0.9480 O.2     1  UNL1       -0.1500
     19  N2        -2.9400   -1.3720    0.2560 N.pl3   1  UNL1       -0.2127
     20  C13       -3.8620   -0.3210    0.3610 C.ar    1  UNL1        0.0893
     21  C14       -3.5870    0.8950    0.9290 C.ar    1  UNL1       -0.0358
     22  C15       -4.5370    1.9260    0.9950 C.ar    1  UNL1       -0.0597
     23  C16       -5.7850    1.7260    0.4780 C.ar    1  UNL1       -0.0582
     24  C17       -6.0840    0.5310   -0.0920 C.ar    1  UNL1       -0.0183
     25  C18       -5.1520   -0.4790   -0.1560 C.ar    1  UNL1        0.1391
     26  O5        -5.5320   -1.6610   -0.7490 O.3     1  UNL1       -0.5049
     27  C19        0.3910   -0.4630    1.0760 C.ar    1  UNL1       -0.0230
     28 H           2.2029   -0.7351   -0.8258 H       1  UNL1        0.1552
     29 H           4.6713    1.8678   -0.6426 H       1  UNL1        0.0637
     30 H           6.4695    2.1323   -2.2645 H       1  UNL1        0.0618
     31 H           6.6697    0.6041   -4.1098 H       1  UNL1        0.0619
     32 H           5.0771   -1.1772   -4.3395 H       1  UNL1        0.0655
     33 H           2.3591   -1.7749   -2.1058 H       1  UNL1        0.2922
     34 H           1.8965    1.8563    2.8448 H       1  UNL1        0.0625
     35 H           0.0568    1.3998    4.2947 H       1  UNL1        0.0618
     36 H          -1.6034   -0.2400    3.7408 H       1  UNL1        0.0637
     37 H          -2.9180   -1.8306   -0.6149 H       1  UNL1        0.1738
     38 H          -2.6472    1.0588    1.3226 H       1  UNL1        0.0638
     39 H          -4.2940    2.8291    1.4313 H       1  UNL1        0.0618
     40 H          -6.4932    2.4754    0.5202 H       1  UNL1        0.0619
     41 H          -7.0262    0.3775   -0.4839 H       1  UNL1        0.0655
     42 H          -4.9237   -2.3711   -0.8105 H       1  UNL1        0.2922
     43 H           0.4751   -0.9826    0.1883 H       1  UNL1        0.0645
@<TRIPOS>BOND
     1     1     2    2
     2     2     3   am
     3     2    11    1
     4     3     4    1
     5     4     5   ar
     6     4     9   ar
     7     5     6   ar
     8     6     7   ar
     9     7     8   ar
    10     8     9   ar
    11     9    10    1
    12    11    12   ar
    13    11    27   ar
    14    12    13   ar
    15    13    14   ar
    16    14    15   ar
    17    15    16    1
    18    15    27   ar
    19    16    17    2
    20    16    18    2
    21    16    19    1
    22    19    20    1
    23    20    21   ar
    24    20    25   ar
    25    21    22   ar
    26    22    23   ar
    27    23    24   ar
    28    24    25   ar
    29    25    26    1
    30     3    28    1
    31     5    29    1
    32     6    30    1
    33     7    31    1
    34     8    32    1
    35    10    33    1
    36    12    34    1
    37    13    35    1
    38    14    36    1
    39    19    37    1
    40    21    38    1
    41    22    39    1
    42    23    40    1
    43    24    41    1
    44    26    42    1
    45    27    43    1
@<TRIPOS>MOLECULE
../data/bude_mols_rdkit_confs2/molecule_29.pdb
 43 45 0 0 0
SMALL
GASTEIGER

@<TRIPOS>ATOM
      1  O1        -1.9620    1.4370   -0.3700 O.2     1  UNL1       -0.2699
      2  C1        -2.1540    0.2540   -0.0300 C.2     1  UNL1        0.2484
      3  N1        -3.3580   -0.4280   -0.1980 N.am    1  UNL1       -0.2786
      4  C2        -4.5040    0.1330   -0.7750 C.ar    1  UNL1        0.0756
      5  C3        -4.5570    1.4010   -1.2670 C.ar    1  UNL1       -0.0369
      6  C4        -5.7300    1.9200   -1.8410 C.ar    1  UNL1       -0.0598
      7  C5        -6.8490    1.1340   -1.9100 C.ar    1  UNL1       -0.0582
      8  C6        -6.8410   -0.1450   -1.4290 C.ar    1  UNL1       -0.0183
      9  C7        -5.6520   -0.6400   -0.8580 C.ar    1  UNL1        0.1380
     10  O2        -5.7190   -1.9410   -0.3940 O.3     1  UNL1       -0.5049
     11  C8        -0.9620   -0.3910    0.5880 C.ar    1  UNL1        0.0389
     12  C9        -0.8630   -1.7550    0.4640 C.ar    1  UNL1       -0.0495
     13  C10        0.2390   -2.3900    1.0530 C.ar    1  UNL1       -0.0592
     14  C11        1.1880   -1.6380    1.7380 C.ar    1  UNL1       -0.0350
     15  C12        1.0920   -0.2740    1.8630 C.ar    1  UNL1        0.1092
     16  S1         2.2950    0.6510    2.7250 S.O2    1  UNL1        0.0725
     17  O3         1.6340    1.7330    3.5560 O.2     1  UNL1       -0.1500
     18  O4         2.9200   -0.2850    3.7360 O.2     1  UNL1       -0.1500
     19  N2         3.4970    1.3300    1.7260 N.pl3   1  UNL1       -0.2127
     20  C13        4.4080    0.6340    0.9140 C.ar    1  UNL1        0.0893
     21  C14        4.6600   -0.7030    1.0670 C.ar    1  UNL1       -0.0358
     22  C15        5.5560   -1.3750    0.2750 C.ar    1  UNL1       -0.0597
     23  C16        6.2440   -0.7110   -0.7180 C.ar    1  UNL1       -0.0582
     24  C17        6.0090    0.6400   -0.8930 C.ar    1  UNL1       -0.0183
     25  C18        5.0990    1.3070   -0.0840 C.ar    1  UNL1        0.1391
     26  O5         4.8540    2.6630   -0.2500 O.3     1  UNL1       -0.5049
     27  C19       -0.0080    0.3190    1.2690 C.ar    1  UNL1       -0.0230
     28 H          -3.4057   -1.3625    0.1081 H       1  UNL1        0.1552
     29 H          -3.7151    1.9958   -1.2173 H       1  UNL1        0.0637
     30 H          -5.7478    2.8847   -2.2072 H       1  UNL1        0.0618
     31 H          -7.7113    1.5132   -2.3315 H       1  UNL1        0.0619
     32 H          -7.6863   -0.7346   -1.4828 H       1  UNL1        0.0655
     33 H          -4.9664   -2.3377   -0.0014 H       1  UNL1        0.2922
     34 H          -1.5780   -2.2959   -0.0471 H       1  UNL1        0.0625
     35 H           0.3462   -3.4137    0.9786 H       1  UNL1        0.0618
     36 H           1.9921   -2.1221    2.1671 H       1  UNL1        0.0637
     37 H           3.5596    2.3125    1.7169 H       1  UNL1        0.1738
     38 H           4.1585   -1.2233    1.8037 H       1  UNL1        0.0638
     39 H           5.7160   -2.3837    0.4234 H       1  UNL1        0.0618
     40 H           6.9192   -1.2111   -1.3172 H       1  UNL1        0.0619
     41 H           6.5136    1.1565   -1.6303 H       1  UNL1        0.0655
     42 H           4.2368    3.0988    0.3041 H       1  UNL1        0.2922
     43 H          -0.1149    1.3428    1.3422 H       1  UNL1        0.0645
@<TRIPOS>BOND
     1     1     2    2
     2     2     3   am
     3     2    11    1
     4     3     4    1
     5     4     5   ar
     6     4     9   ar
     7     5     6   ar
     8     6     7   ar
     9     7     8   ar
    10     8     9   ar
    11     9    10    1
    12    11    12   ar
    13    11    27   ar
    14    12    13   ar
    15    13    14   ar
    16    14    15   ar
    17    15    16    1
    18    15    27   ar
    19    16    17    2
    20    16    18    2
    21    16    19    1
    22    19    20    1
    23    20    21   ar
    24    20    25   ar
    25    21    22   ar
    26    22    23   ar
    27    23    24   ar
    28    24    25   ar
    29    25    26    1
    30     3    28    1
    31     5    29    1
    32     6    30    1
    33     7    31    1
    34     8    32    1
    35    10    33    1
    36    12    34    1
    37    13    35    1
    38    14    36    1
    39    19    37    1
    40    21    38    1
    41    22    39    1
    42    23    40    1
    43    24    41    1
    44    26    42    1
    45    27    43    1
