@<TRIPOS>MOLECULE
../data/bude_mols_rdkit_confs2/molecule_14.pdb
 30 32 0 0 0
SMALL
GASTEIGER

@<TRIPOS>ATOM
      1  O1        -3.8050   -0.7710    2.5450 O.2     1  UNL1       -0.2658
      2  C1        -2.7700   -0.2320    2.0530 C.ar    1  UNL1        0.2725
      3  N1        -1.8820    0.4290    2.8490 N.ar    1  UNL1       -0.2425
      4  N2        -0.8180    0.9820    2.3370 N.ar    1  UNL1       -0.1750
      5  C2        -0.4970    0.9620    1.0270 C.ar    1  UNL1        0.0736
      6  C3         0.7310    1.6160    0.5060 C.3     1  UNL1        0.0185
      7  C4         1.7900    0.6460    0.1780 C.ar    1  UNL1       -0.0232
      8  C5         1.6250   -0.7020    0.3540 C.ar    1  UNL1       -0.0568
      9  C6         2.6790   -1.5260    0.0150 C.ar    1  UNL1       -0.0614
     10  C7         3.8810   -1.0400   -0.4900 C.ar    1  UNL1       -0.0604
     11  C8         4.0280    0.3030   -0.6580 C.ar    1  UNL1       -0.0431
     12  C9         2.9760    1.1510   -0.3230 C.ar    1  UNL1        0.0445
     13 CL1         3.2430    2.8670   -0.5680 Cl      1  UNL1       -0.0832
     14  C10       -1.3700    0.3030    0.1900 C.ar    1  UNL1        0.0106
     15  C11       -1.1310    0.2250   -1.1650 C.ar    1  UNL1       -0.0521
     16  C12       -2.0050   -0.4410   -2.0340 C.ar    1  UNL1       -0.0611
     17  C13       -3.1310   -1.0320   -1.5270 C.ar    1  UNL1       -0.0610
     18  C14       -3.3650   -0.9500   -0.1710 C.ar    1  UNL1       -0.0487
     19  C15       -2.5200   -0.3020    0.7000 C.ar    1  UNL1        0.0496
     20 H          -2.0455    0.4892    3.8180 H       1  UNL1        0.1921
     21 H           1.1019    2.2911    1.2487 H       1  UNL1        0.0378
     22 H           0.4689    2.1290   -0.3957 H       1  UNL1        0.0378
     23 H           0.7436   -1.0881    0.7270 H       1  UNL1        0.0621
     24 H           2.5712   -2.5446    0.1413 H       1  UNL1        0.0618
     25 H           4.6479   -1.6864   -0.7330 H       1  UNL1        0.0618
     26 H           4.9102    0.6884   -1.0298 H       1  UNL1        0.0632
     27 H          -0.2836    0.6701   -1.5507 H       1  UNL1        0.0624
     28 H          -1.8023   -0.4856   -3.0449 H       1  UNL1        0.0618
     29 H          -3.7904   -1.5282   -2.1466 H       1  UNL1        0.0618
     30 H          -4.2146   -1.3960    0.2089 H       1  UNL1        0.0625
@<TRIPOS>BOND
     1     1     2    2
     2     2     3   ar
     3     2    19   ar
     4     3     4   ar
     5     4     5   ar
     6     5     6    1
     7     5    14   ar
     8     6     7    1
     9     7     8   ar
    10     7    12   ar
    11     8     9   ar
    12     9    10   ar
    13    10    11   ar
    14    11    12   ar
    15    12    13    1
    16    14    15   ar
    17    14    19   ar
    18    15    16   ar
    19    16    17   ar
    20    17    18   ar
    21    18    19   ar
    22     3    20    1
    23     6    21    1
    24     6    22    1
    25     8    23    1
    26     9    24    1
    27    10    25    1
    28    11    26    1
    29    15    27    1
    30    16    28    1
    31    17    29    1
    32    18    30    1
@<TRIPOS>MOLECULE
../data/bude_mols_rdkit_confs2/molecule_14.pdb
 30 32 0 0 0
SMALL
GASTEIGER

@<TRIPOS>ATOM
      1  O1        -3.9380   -2.1520   -0.7660 O.2     1  UNL1       -0.2658
      2  C1        -2.9020   -1.6680   -0.2190 C.ar    1  UNL1        0.2725
      3  N1        -2.0840   -2.4590    0.4730 N.ar    1  UNL1       -0.2425
      4  N2        -0.9950   -2.0440    1.0690 N.ar    1  UNL1       -0.1750
      5  C2        -0.5860   -0.7190    1.0340 C.ar    1  UNL1        0.0736
      6  C3         0.6740   -0.4220    1.7370 C.3     1  UNL1        0.0185
      7  C4         1.8570   -0.2270    0.9110 C.ar    1  UNL1       -0.0232
      8  C5         2.2770   -1.2740    0.0970 C.ar    1  UNL1       -0.0568
      9  C6         3.3000   -1.1130   -0.7970 C.ar    1  UNL1       -0.0614
     10  C7         3.9660    0.1060   -0.9310 C.ar    1  UNL1       -0.0604
     11  C8         3.5520    1.1340   -0.1260 C.ar    1  UNL1       -0.0431
     12  C9         2.5200    0.9460    0.7670 C.ar    1  UNL1        0.0445
     13 CL1         2.1810    2.3120    1.8400 Cl      1  UNL1       -0.0832
     14  C10       -1.4040    0.0990    0.3380 C.ar    1  UNL1        0.0106
     15  C11       -1.0820    1.4270    0.2490 C.ar    1  UNL1       -0.0521
     16  C12       -1.9000    2.2700   -0.4580 C.ar    1  UNL1       -0.0611
     17  C13       -3.0640    1.8360   -1.1010 C.ar    1  UNL1       -0.0610
     18  C14       -3.3860    0.5000   -1.0080 C.ar    1  UNL1       -0.0487
     19  C15       -2.5650   -0.3410   -0.3000 C.ar    1  UNL1        0.0496
     20 H          -2.3123   -3.4143    0.5404 H       1  UNL1        0.1921
     21 H           0.8738   -1.2368    2.4012 H       1  UNL1        0.0378
     22 H           0.5106    0.5196    2.2183 H       1  UNL1        0.0378
     23 H           1.8076   -2.1903    0.1689 H       1  UNL1        0.0621
     24 H           3.5856   -1.9111   -1.3856 H       1  UNL1        0.0618
     25 H           4.7364    0.2276   -1.6068 H       1  UNL1        0.0618
     26 H           4.0155    2.0539   -0.1888 H       1  UNL1        0.0632
     27 H          -0.2324    1.7895    0.7093 H       1  UNL1        0.0624
     28 H          -1.6459    3.2684   -0.5184 H       1  UNL1        0.0618
     29 H          -3.6606    2.4938   -1.6267 H       1  UNL1        0.0618
     30 H          -4.2359    0.1354   -1.4660 H       1  UNL1        0.0625
@<TRIPOS>BOND
     1     1     2    2
     2     2     3   ar
     3     2    19   ar
     4     3     4   ar
     5     4     5   ar
     6     5     6    1
     7     5    14   ar
     8     6     7    1
     9     7     8   ar
    10     7    12   ar
    11     8     9   ar
    12     9    10   ar
    13    10    11   ar
    14    11    12   ar
    15    12    13    1
    16    14    15   ar
    17    14    19   ar
    18    15    16   ar
    19    16    17   ar
    20    17    18   ar
    21    18    19   ar
    22     3    20    1
    23     6    21    1
    24     6    22    1
    25     8    23    1
    26     9    24    1
    27    10    25    1
    28    11    26    1
    29    15    27    1
    30    16    28    1
    31    17    29    1
    32    18    30    1
@<TRIPOS>MOLECULE
../data/bude_mols_rdkit_confs2/molecule_14.pdb
 30 32 0 0 0
SMALL
GASTEIGER

@<TRIPOS>ATOM
      1  O1         3.3810    2.6580    0.3170 O.2     1  UNL1       -0.2658
      2  C1         2.4450    1.7950    0.2360 C.ar    1  UNL1        0.2725
      3  N1         1.1780    2.2130    0.2980 N.ar    1  UNL1       -0.2425
      4  N2         0.1810    1.3560    0.2190 N.ar    1  UNL1       -0.1750
      5  C2         0.3410    0.0300    0.0750 C.ar    1  UNL1        0.0736
      6  C3        -0.7480   -0.9440   -0.0110 C.3     1  UNL1        0.0185
      7  C4        -2.0810   -0.2930    0.0420 C.ar    1  UNL1       -0.0232
      8  C5        -2.8310   -0.3310    1.1980 C.ar    1  UNL1       -0.0568
      9  C6        -4.0860    0.2730    1.2720 C.ar    1  UNL1       -0.0614
     10  C7        -4.5960    0.9210    0.1870 C.ar    1  UNL1       -0.0604
     11  C8        -3.8660    0.9770   -0.9930 C.ar    1  UNL1       -0.0431
     12  C9        -2.6220    0.3690   -1.0410 C.ar    1  UNL1        0.0445
     13 CL1        -1.6920    0.4400   -2.5420 Cl      1  UNL1       -0.0832
     14  C10        1.6510   -0.4120    0.0100 C.ar    1  UNL1        0.0106
     15  C11        1.9210   -1.7520   -0.1380 C.ar    1  UNL1       -0.0521
     16  C12        3.2090   -2.2230   -0.2070 C.ar    1  UNL1       -0.0611
     17  C13        4.2630   -1.3180   -0.1240 C.ar    1  UNL1       -0.0610
     18  C14        4.0260    0.0270    0.0250 C.ar    1  UNL1       -0.0487
     19  C15        2.7230    0.4580    0.0890 C.ar    1  UNL1        0.0496
     20 H           0.9871    3.1730    0.4040 H       1  UNL1        0.1921
     21 H          -0.6649   -1.6284    0.8073 H       1  UNL1        0.0378
     22 H          -0.6647   -1.4512   -0.9494 H       1  UNL1        0.0378
     23 H          -2.4555   -0.8172    2.0272 H       1  UNL1        0.0621
     24 H          -4.6286    0.2292    2.1487 H       1  UNL1        0.0618
     25 H          -5.5237    1.3696    0.2422 H       1  UNL1        0.0618
     26 H          -4.2440    1.4637   -1.8208 H       1  UNL1        0.0632
     27 H           1.1367   -2.4200   -0.1987 H       1  UNL1        0.0624
     28 H           3.3926   -3.2324   -0.3187 H       1  UNL1        0.0618
     29 H           5.2348   -1.6616   -0.1750 H       1  UNL1        0.0618
     30 H           4.8080    0.6976    0.0874 H       1  UNL1        0.0625
@<TRIPOS>BOND
     1     1     2    2
     2     2     3   ar
     3     2    19   ar
     4     3     4   ar
     5     4     5   ar
     6     5     6    1
     7     5    14   ar
     8     6     7    1
     9     7     8   ar
    10     7    12   ar
    11     8     9   ar
    12     9    10   ar
    13    10    11   ar
    14    11    12   ar
    15    12    13    1
    16    14    15   ar
    17    14    19   ar
    18    15    16   ar
    19    16    17   ar
    20    17    18   ar
    21    18    19   ar
    22     3    20    1
    23     6    21    1
    24     6    22    1
    25     8    23    1
    26     9    24    1
    27    10    25    1
    28    11    26    1
    29    15    27    1
    30    16    28    1
    31    17    29    1
    32    18    30    1
@<TRIPOS>MOLECULE
../data/bude_mols_rdkit_confs2/molecule_14.pdb
 30 32 0 0 0
SMALL
GASTEIGER

@<TRIPOS>ATOM
      1  O1        -3.5620    1.8780   -1.8780 O.2     1  UNL1       -0.2658
      2  C1        -2.6220    1.0930   -1.6230 C.ar    1  UNL1        0.2725
      3  N1        -1.7340    0.6980   -2.5440 N.ar    1  UNL1       -0.2425
      4  N2        -0.7440   -0.1450   -2.2200 N.ar    1  UNL1       -0.1750
      5  C2        -0.5750   -0.6380   -0.9970 C.ar    1  UNL1        0.0736
      6  C3         0.5460   -1.4870   -0.6170 C.3     1  UNL1        0.0185
      7  C4         1.7490   -0.7240   -0.1940 C.ar    1  UNL1       -0.0232
      8  C5         1.7530    0.2820    0.7390 C.ar    1  UNL1       -0.0568
      9  C6         2.9170    1.0230    1.0530 C.ar    1  UNL1       -0.0614
     10  C7         4.0830    0.7550    0.4300 C.ar    1  UNL1       -0.0604
     11  C8         4.1240   -0.2490   -0.5150 C.ar    1  UNL1       -0.0431
     12  C9         2.9890   -0.9690   -0.8210 C.ar    1  UNL1        0.0445
     13 CL1         3.0420   -2.2570   -1.9920 Cl      1  UNL1       -0.0832
     14  C10       -1.4790   -0.2620    0.0110 C.ar    1  UNL1        0.0106
     15  C11       -1.3450   -0.7790    1.2810 C.ar    1  UNL1       -0.0521
     16  C12       -2.2610   -0.4060    2.2410 C.ar    1  UNL1       -0.0611
     17  C13       -3.2840    0.4630    1.9340 C.ar    1  UNL1       -0.0610
     18  C14       -3.3950    0.9610    0.6590 C.ar    1  UNL1       -0.0487
     19  C15       -2.4940    0.6080   -0.3350 C.ar    1  UNL1        0.0496
     20 H          -1.8091    1.0300   -3.4678 H       1  UNL1        0.1921
     21 H           0.8091   -2.0967   -1.4560 H       1  UNL1        0.0378
     22 H           0.2301   -2.0690    0.2235 H       1  UNL1        0.0378
     23 H           0.8738    0.5068    1.2304 H       1  UNL1        0.0621
     24 H           2.8736    1.7718    1.7618 H       1  UNL1        0.0618
     25 H           4.9332    1.2940    0.6574 H       1  UNL1        0.0618
     26 H           5.0113   -0.4628   -0.9967 H       1  UNL1        0.0632
     27 H          -0.5771   -1.4300    1.5081 H       1  UNL1        0.0624
     28 H          -2.1794   -0.7815    3.1988 H       1  UNL1        0.0618
     29 H          -3.9645    0.7389    2.6591 H       1  UNL1        0.0618
     30 H          -4.1646    1.6113    0.4357 H       1  UNL1        0.0625
@<TRIPOS>BOND
     1     1     2    2
     2     2     3   ar
     3     2    19   ar
     4     3     4   ar
     5     4     5   ar
     6     5     6    1
     7     5    14   ar
     8     6     7    1
     9     7     8   ar
    10     7    12   ar
    11     8     9   ar
    12     9    10   ar
    13    10    11   ar
    14    11    12   ar
    15    12    13    1
    16    14    15   ar
    17    14    19   ar
    18    15    16   ar
    19    16    17   ar
    20    17    18   ar
    21    18    19   ar
    22     3    20    1
    23     6    21    1
    24     6    22    1
    25     8    23    1
    26     9    24    1
    27    10    25    1
    28    11    26    1
    29    15    27    1
    30    16    28    1
    31    17    29    1
    32    18    30    1
@<TRIPOS>MOLECULE
../data/bude_mols_rdkit_confs2/molecule_14.pdb
 30 32 0 0 0
SMALL
GASTEIGER

@<TRIPOS>ATOM
      1  O1        -3.8290   -1.3230    2.1980 O.2     1  UNL1       -0.2658
      2  C1        -2.7930   -1.2910    1.4720 C.ar    1  UNL1        0.2725
      3  N1        -1.9350   -2.3360    1.5200 N.ar    1  UNL1       -0.2425
      4  N2        -0.8530   -2.3210    0.7700 N.ar    1  UNL1       -0.1750
      5  C2        -0.5110   -1.3220   -0.0690 C.ar    1  UNL1        0.0736
      6  C3         0.6920   -1.3920   -0.9160 C.3     1  UNL1        0.0185
      7  C4         1.7870   -0.5360   -0.4730 C.ar    1  UNL1       -0.0232
      8  C5         2.8140   -0.2730   -1.3860 C.ar    1  UNL1       -0.0568
      9  C6         3.8810    0.5050   -1.1070 C.ar    1  UNL1       -0.0614
     10  C7         3.9800    1.0830    0.1520 C.ar    1  UNL1       -0.0604
     11  C8         2.9700    0.8350    1.0770 C.ar    1  UNL1       -0.0431
     12  C9         1.8830    0.0290    0.7600 C.ar    1  UNL1        0.0445
     13 CL1         0.6590   -0.2220    2.0120 Cl      1  UNL1       -0.0832
     14  C10       -1.3900   -0.2400   -0.1230 C.ar    1  UNL1        0.0106
     15  C11       -1.1330    0.8350   -0.9450 C.ar    1  UNL1       -0.0521
     16  C12       -1.9640    1.9270   -1.0350 C.ar    1  UNL1       -0.0611
     17  C13       -3.0980    1.9290   -0.2650 C.ar    1  UNL1       -0.0610
     18  C14       -3.3920    0.8610    0.5780 C.ar    1  UNL1       -0.0487
     19  C15       -2.5370   -0.2180    0.6460 C.ar    1  UNL1        0.0496
     20 H          -2.1183   -3.1016    2.1111 H       1  UNL1        0.1921
     21 H           0.4201   -1.1017   -1.9093 H       1  UNL1        0.0378
     22 H           1.0482   -2.3995   -0.8608 H       1  UNL1        0.0378
     23 H           2.7523   -0.6974   -2.3247 H       1  UNL1        0.0621
     24 H           4.6114    0.6678   -1.8176 H       1  UNL1        0.0618
     25 H           4.7838    1.6825    0.3960 H       1  UNL1        0.0618
     26 H           3.0294    1.2578    2.0165 H       1  UNL1        0.0632
     27 H          -0.2765    0.8202   -1.5204 H       1  UNL1        0.0624
     28 H          -1.7416    2.7173   -1.6603 H       1  UNL1        0.0618
     29 H          -3.7428    2.7335   -0.3109 H       1  UNL1        0.0618
     30 H          -4.2497    0.8771    1.1518 H       1  UNL1        0.0625
@<TRIPOS>BOND
     1     1     2    2
     2     2     3   ar
     3     2    19   ar
     4     3     4   ar
     5     4     5   ar
     6     5     6    1
     7     5    14   ar
     8     6     7    1
     9     7     8   ar
    10     7    12   ar
    11     8     9   ar
    12     9    10   ar
    13    10    11   ar
    14    11    12   ar
    15    12    13    1
    16    14    15   ar
    17    14    19   ar
    18    15    16   ar
    19    16    17   ar
    20    17    18   ar
    21    18    19   ar
    22     3    20    1
    23     6    21    1
    24     6    22    1
    25     8    23    1
    26     9    24    1
    27    10    25    1
    28    11    26    1
    29    15    27    1
    30    16    28    1
    31    17    29    1
    32    18    30    1
@<TRIPOS>MOLECULE
../data/bude_mols_rdkit_confs2/molecule_14.pdb
 30 32 0 0 0
SMALL
GASTEIGER

@<TRIPOS>ATOM
      1  O1        -3.6090   -2.4140   -0.9330 O.2     1  UNL1       -0.2658
      2  C1        -2.6260   -1.8700   -0.3240 C.ar    1  UNL1        0.2725
      3  N1        -1.7070   -2.6130    0.3090 N.ar    1  UNL1       -0.2425
      4  N2        -0.6910   -2.0640    0.9390 N.ar    1  UNL1       -0.1750
      5  C2        -0.4830   -0.7280    1.0060 C.ar    1  UNL1        0.0736
      6  C3         0.6980   -0.1580    1.6360 C.3     1  UNL1        0.0185
      7  C4         1.8360    0.0390    0.7090 C.ar    1  UNL1       -0.0232
      8  C5         2.2130    1.2390    0.1940 C.ar    1  UNL1       -0.0568
      9  C6         3.2820    1.3920   -0.6780 C.ar    1  UNL1       -0.0614
     10  C7         4.0190    0.3100   -1.0620 C.ar    1  UNL1       -0.0604
     11  C8         3.6760   -0.9290   -0.5660 C.ar    1  UNL1       -0.0431
     12  C9         2.6140   -1.0640    0.2960 C.ar    1  UNL1        0.0445
     13 CL1         2.1500   -2.6270    0.9540 Cl      1  UNL1       -0.0832
     14  C10       -1.4290    0.0510    0.3580 C.ar    1  UNL1        0.0106
     15  C11       -1.3430    1.4290    0.3790 C.ar    1  UNL1       -0.0521
     16  C12       -2.2930    2.2200   -0.2480 C.ar    1  UNL1       -0.0611
     17  C13       -3.3470    1.6170   -0.9050 C.ar    1  UNL1       -0.0610
     18  C14       -3.4600    0.2480   -0.9410 C.ar    1  UNL1       -0.0487
     19  C15       -2.4970   -0.4990   -0.3070 C.ar    1  UNL1        0.0496
     20 H          -1.7946   -3.5936    0.3022 H       1  UNL1        0.1921
     21 H           1.0119   -0.8149    2.4201 H       1  UNL1        0.0378
     22 H           0.4207    0.8100    1.9978 H       1  UNL1        0.0378
     23 H           1.6775    2.0786    0.4649 H       1  UNL1        0.0621
     24 H           3.5206    2.3293   -1.0378 H       1  UNL1        0.0618
     25 H           4.8155    0.4171   -1.7094 H       1  UNL1        0.0618
     26 H           4.2200   -1.7609   -0.8435 H       1  UNL1        0.0632
     27 H          -0.5556    1.8790    0.8714 H       1  UNL1        0.0624
     28 H          -2.2133    3.2486   -0.2240 H       1  UNL1        0.0618
     29 H          -4.0574    2.2005   -1.3739 H       1  UNL1        0.0618
     30 H          -4.2465   -0.2064   -1.4308 H       1  UNL1        0.0625
@<TRIPOS>BOND
     1     1     2    2
     2     2     3   ar
     3     2    19   ar
     4     3     4   ar
     5     4     5   ar
     6     5     6    1
     7     5    14   ar
     8     6     7    1
     9     7     8   ar
    10     7    12   ar
    11     8     9   ar
    12     9    10   ar
    13    10    11   ar
    14    11    12   ar
    15    12    13    1
    16    14    15   ar
    17    14    19   ar
    18    15    16   ar
    19    16    17   ar
    20    17    18   ar
    21    18    19   ar
    22     3    20    1
    23     6    21    1
    24     6    22    1
    25     8    23    1
    26     9    24    1
    27    10    25    1
    28    11    26    1
    29    15    27    1
    30    16    28    1
    31    17    29    1
    32    18    30    1
@<TRIPOS>MOLECULE
../data/bude_mols_rdkit_confs2/molecule_14.pdb
 30 32 0 0 0
SMALL
GASTEIGER

@<TRIPOS>ATOM
      1  O1         3.5620    2.5370   -0.6840 O.2     1  UNL1       -0.2658
      2  C1         2.6320    1.8190   -0.2190 C.ar    1  UNL1        0.2725
      3  N1         1.6440    2.2930    0.5610 N.ar    1  UNL1       -0.2425
      4  N2         0.6770    1.5330    1.0370 N.ar    1  UNL1       -0.1750
      5  C2         0.5940    0.1810    0.7770 C.ar    1  UNL1        0.0736
      6  C3        -0.5920   -0.4500    1.2780 C.3     1  UNL1        0.0185
      7  C4        -1.8840   -0.1500    0.6150 C.ar    1  UNL1       -0.0232
      8  C5        -2.7650    0.7490    1.2650 C.ar    1  UNL1       -0.0568
      9  C6        -3.9920    1.1050    0.7840 C.ar    1  UNL1       -0.0614
     10  C7        -4.4390    0.5820   -0.4060 C.ar    1  UNL1       -0.0604
     11  C8        -3.6250   -0.2850   -1.0690 C.ar    1  UNL1       -0.0431
     12  C9        -2.3650   -0.6440   -0.5610 C.ar    1  UNL1        0.0445
     13 CL1        -1.4410   -1.7720   -1.5070 Cl      1  UNL1       -0.0832
     14  C10        1.5980   -0.3010   -0.0100 C.ar    1  UNL1        0.0106
     15  C11        1.6260   -1.6530   -0.2690 C.ar    1  UNL1       -0.0521
     16  C12        2.6360   -2.2600   -1.0220 C.ar    1  UNL1       -0.0611
     17  C13        3.6420   -1.4650   -1.5240 C.ar    1  UNL1       -0.0610
     18  C14        3.6360   -0.1100   -1.2770 C.ar    1  UNL1       -0.0487
     19  C15        2.6200    0.4790   -0.5200 C.ar    1  UNL1        0.0496
     20 H           1.6427    3.2512    0.7869 H       1  UNL1        0.1921
     21 H          -0.6906   -0.1678    2.3054 H       1  UNL1        0.0378
     22 H          -0.4354   -1.4916    1.0899 H       1  UNL1        0.0378
     23 H          -2.4594    1.1616    2.1602 H       1  UNL1        0.0621
     24 H          -4.5828    1.7655    1.3128 H       1  UNL1        0.0618
     25 H          -5.3637    0.8388   -0.7855 H       1  UNL1        0.0618
     26 H          -3.9407   -0.6877   -1.9652 H       1  UNL1        0.0632
     27 H           0.8690   -2.2439    0.1089 H       1  UNL1        0.0624
     28 H           2.6276   -3.2770   -1.1969 H       1  UNL1        0.0618
     29 H           4.4000   -1.8842   -2.0850 H       1  UNL1        0.0618
     30 H           4.3934    0.4791   -1.6568 H       1  UNL1        0.0625
@<TRIPOS>BOND
     1     1     2    2
     2     2     3   ar
     3     2    19   ar
     4     3     4   ar
     5     4     5   ar
     6     5     6    1
     7     5    14   ar
     8     6     7    1
     9     7     8   ar
    10     7    12   ar
    11     8     9   ar
    12     9    10   ar
    13    10    11   ar
    14    11    12   ar
    15    12    13    1
    16    14    15   ar
    17    14    19   ar
    18    15    16   ar
    19    16    17   ar
    20    17    18   ar
    21    18    19   ar
    22     3    20    1
    23     6    21    1
    24     6    22    1
    25     8    23    1
    26     9    24    1
    27    10    25    1
    28    11    26    1
    29    15    27    1
    30    16    28    1
    31    17    29    1
    32    18    30    1
@<TRIPOS>MOLECULE
../data/bude_mols_rdkit_confs2/molecule_14.pdb
 30 32 0 0 0
SMALL
GASTEIGER

@<TRIPOS>ATOM
      1  O1        -3.8360   -2.3840    0.4560 O.2     1  UNL1       -0.2658
      2  C1        -2.7710   -1.6920    0.3680 C.ar    1  UNL1        0.2725
      3  N1        -1.5750   -2.2550    0.5950 N.ar    1  UNL1       -0.2425
      4  N2        -0.4760   -1.5710    0.5100 N.ar    1  UNL1       -0.1750
      5  C2        -0.4190   -0.2860    0.2000 C.ar    1  UNL1        0.0736
      6  C3         0.7590    0.5520    0.0860 C.3     1  UNL1        0.0185
      7  C4         2.0770   -0.0150    0.2220 C.ar    1  UNL1       -0.0232
      8  C5         2.3990   -1.3450    0.2060 C.ar    1  UNL1       -0.0568
      9  C6         3.6990   -1.7240    0.3370 C.ar    1  UNL1       -0.0614
     10  C7         4.7400   -0.8200    0.4910 C.ar    1  UNL1       -0.0604
     11  C8         4.4120    0.5290    0.5080 C.ar    1  UNL1       -0.0431
     12  C9         3.1130    0.9440    0.3770 C.ar    1  UNL1        0.0445
     13 CL1         2.7760    2.6590    0.4000 Cl      1  UNL1       -0.0832
     14  C10       -1.6380    0.3470   -0.0450 C.ar    1  UNL1        0.0106
     15  C11       -1.7230    1.6810   -0.3720 C.ar    1  UNL1       -0.0521
     16  C12       -2.9650    2.2720   -0.6040 C.ar    1  UNL1       -0.0611
     17  C13       -4.1240    1.5470   -0.5130 C.ar    1  UNL1       -0.0610
     18  C14       -4.0540    0.2070   -0.1860 C.ar    1  UNL1       -0.0487
     19  C15       -2.8140   -0.3560    0.0390 C.ar    1  UNL1        0.0496
     20 H          -1.5301   -3.2096    0.8316 H       1  UNL1        0.1921
     21 H           0.6714    1.3076    0.8385 H       1  UNL1        0.0378
     22 H           0.7353    0.8618   -0.9379 H       1  UNL1        0.0378
     23 H           1.6598   -2.0565    0.0952 H       1  UNL1        0.0621
     24 H           3.9213   -2.7317    0.3211 H       1  UNL1        0.0618
     25 H           5.7172   -1.1370    0.5888 H       1  UNL1        0.0618
     26 H           5.1597    1.2312    0.6213 H       1  UNL1        0.0632
     27 H          -0.8633    2.2471   -0.4460 H       1  UNL1        0.0624
     28 H          -3.0118    3.2735   -0.8486 H       1  UNL1        0.0618
     29 H          -5.0368    1.9961   -0.6864 H       1  UNL1        0.0618
     30 H          -4.9117   -0.3620   -0.1114 H       1  UNL1        0.0625
@<TRIPOS>BOND
     1     1     2    2
     2     2     3   ar
     3     2    19   ar
     4     3     4   ar
     5     4     5   ar
     6     5     6    1
     7     5    14   ar
     8     6     7    1
     9     7     8   ar
    10     7    12   ar
    11     8     9   ar
    12     9    10   ar
    13    10    11   ar
    14    11    12   ar
    15    12    13    1
    16    14    15   ar
    17    14    19   ar
    18    15    16   ar
    19    16    17   ar
    20    17    18   ar
    21    18    19   ar
    22     3    20    1
    23     6    21    1
    24     6    22    1
    25     8    23    1
    26     9    24    1
    27    10    25    1
    28    11    26    1
    29    15    27    1
    30    16    28    1
    31    17    29    1
    32    18    30    1
@<TRIPOS>MOLECULE
../data/bude_mols_rdkit_confs2/molecule_14.pdb
 30 32 0 0 0
SMALL
GASTEIGER

@<TRIPOS>ATOM
      1  O1        -3.4170    2.8170   -0.3970 O.2     1  UNL1       -0.2658
      2  C1        -2.4710    2.0790    0.0090 C.ar    1  UNL1        0.2725
      3  N1        -1.3960    2.5040    0.6660 N.ar    1  UNL1       -0.2425
      4  N2        -0.4410    1.7070    1.0640 N.ar    1  UNL1       -0.1750
      5  C2        -0.4480    0.3590    0.8460 C.ar    1  UNL1        0.0736
      6  C3         0.7030   -0.4490    1.2120 C.3     1  UNL1        0.0185
      7  C4         1.9160   -0.3440    0.3910 C.ar    1  UNL1       -0.0232
      8  C5         2.9550    0.4660    0.9330 C.ar    1  UNL1       -0.0568
      9  C6         4.1360    0.6710    0.3000 C.ar    1  UNL1       -0.0614
     10  C7         4.3940    0.1010   -0.9070 C.ar    1  UNL1       -0.0604
     11  C8         3.4330   -0.6830   -1.4690 C.ar    1  UNL1       -0.0431
     12  C9         2.2040   -0.8890   -0.7970 C.ar    1  UNL1        0.0445
     13 CL1         1.1100   -1.9350   -1.6500 Cl      1  UNL1       -0.0832
     14  C10       -1.5360   -0.1290    0.1760 C.ar    1  UNL1        0.0106
     15  C11       -1.7450   -1.4750   -0.0820 C.ar    1  UNL1       -0.0521
     16  C12       -2.8530   -1.9880   -0.7120 C.ar    1  UNL1       -0.0611
     17  C13       -3.8300   -1.1090   -1.1170 C.ar    1  UNL1       -0.0610
     18  C14       -3.6800    0.2430   -0.8860 C.ar    1  UNL1       -0.0487
     19  C15       -2.5650    0.7240   -0.2540 C.ar    1  UNL1        0.0496
     20 H          -1.3161    3.4655    0.8618 H       1  UNL1        0.1921
     21 H           0.3920   -1.4725    1.1885 H       1  UNL1        0.0378
     22 H           0.9978   -0.0711    2.1686 H       1  UNL1        0.0378
     23 H           2.8017    0.9169    1.8485 H       1  UNL1        0.0621
     24 H           4.8512    1.2697    0.7417 H       1  UNL1        0.0618
     25 H           5.2950    0.2585   -1.3850 H       1  UNL1        0.0618
     26 H           3.6006   -1.1273   -2.3853 H       1  UNL1        0.0632
     27 H          -1.0158   -2.1395    0.2210 H       1  UNL1        0.0624
     28 H          -2.9492   -3.0023   -0.8763 H       1  UNL1        0.0618
     29 H          -4.6752   -1.4605   -1.5936 H       1  UNL1        0.0618
     30 H          -4.4159    0.8983   -1.1928 H       1  UNL1        0.0625
@<TRIPOS>BOND
     1     1     2    2
     2     2     3   ar
     3     2    19   ar
     4     3     4   ar
     5     4     5   ar
     6     5     6    1
     7     5    14   ar
     8     6     7    1
     9     7     8   ar
    10     7    12   ar
    11     8     9   ar
    12     9    10   ar
    13    10    11   ar
    14    11    12   ar
    15    12    13    1
    16    14    15   ar
    17    14    19   ar
    18    15    16   ar
    19    16    17   ar
    20    17    18   ar
    21    18    19   ar
    22     3    20    1
    23     6    21    1
    24     6    22    1
    25     8    23    1
    26     9    24    1
    27    10    25    1
    28    11    26    1
    29    15    27    1
    30    16    28    1
    31    17    29    1
    32    18    30    1
@<TRIPOS>MOLECULE
../data/bude_mols_rdkit_confs2/molecule_14.pdb
 30 32 0 0 0
SMALL
GASTEIGER

@<TRIPOS>ATOM
      1  O1         3.2740    1.4790   -2.4190 O.2     1  UNL1       -0.2658
      2  C1         2.3510    1.0440   -1.6980 C.ar    1  UNL1        0.2725
      3  N1         1.0440    1.1040   -2.0600 N.ar    1  UNL1       -0.2425
      4  N2         0.0670    0.6450   -1.2990 N.ar    1  UNL1       -0.1750
      5  C2         0.3380    0.0950   -0.1230 C.ar    1  UNL1        0.0736
      6  C3        -0.7000   -0.4450    0.7950 C.3     1  UNL1        0.0185
      7  C4        -2.0570   -0.3130    0.2660 C.ar    1  UNL1       -0.0232
      8  C5        -2.6900   -1.4250   -0.2480 C.ar    1  UNL1       -0.0568
      9  C6        -3.9660   -1.3820   -0.7660 C.ar    1  UNL1       -0.0614
     10  C7        -4.6080   -0.1610   -0.7550 C.ar    1  UNL1       -0.0604
     11  C8        -3.9840    0.9720   -0.2400 C.ar    1  UNL1       -0.0431
     12  C9        -2.7060    0.9040    0.2730 C.ar    1  UNL1        0.0445
     13 CL1        -1.9330    2.3580    0.9230 Cl      1  UNL1       -0.0832
     14  C10        1.6460    0.0060    0.3020 C.ar    1  UNL1        0.0106
     15  C11        1.9590   -0.5660    1.5300 C.ar    1  UNL1       -0.0521
     16  C12        3.2560   -0.6740    1.9880 C.ar    1  UNL1       -0.0611
     17  C13        4.2760   -0.1900    1.1840 C.ar    1  UNL1       -0.0610
     18  C14        3.9910    0.3820   -0.0390 C.ar    1  UNL1       -0.0487
     19  C15        2.6860    0.4810   -0.4810 C.ar    1  UNL1        0.0496
     20 H           0.8143    1.5075   -2.9281 H       1  UNL1        0.1921
     21 H          -0.6430    0.0846    1.7230 H       1  UNL1        0.0378
     22 H          -0.5053   -1.4899    0.9181 H       1  UNL1        0.0378
     23 H          -2.1874   -2.3263   -0.2446 H       1  UNL1        0.0621
     24 H          -4.4217   -2.2265   -1.1457 H       1  UNL1        0.0618
     25 H          -5.5649   -0.0863   -1.1341 H       1  UNL1        0.0618
     26 H          -4.4845    1.8745   -0.2423 H       1  UNL1        0.0632
     27 H           1.1923   -0.9233    2.1212 H       1  UNL1        0.0624
     28 H           3.4610   -1.1033    2.9038 H       1  UNL1        0.0618
     29 H           5.2554   -0.2579    1.5022 H       1  UNL1        0.0618
     30 H           4.7593    0.7388   -0.6284 H       1  UNL1        0.0625
@<TRIPOS>BOND
     1     1     2    2
     2     2     3   ar
     3     2    19   ar
     4     3     4   ar
     5     4     5   ar
     6     5     6    1
     7     5    14   ar
     8     6     7    1
     9     7     8   ar
    10     7    12   ar
    11     8     9   ar
    12     9    10   ar
    13    10    11   ar
    14    11    12   ar
    15    12    13    1
    16    14    15   ar
    17    14    19   ar
    18    15    16   ar
    19    16    17   ar
    20    17    18   ar
    21    18    19   ar
    22     3    20    1
    23     6    21    1
    24     6    22    1
    25     8    23    1
    26     9    24    1
    27    10    25    1
    28    11    26    1
    29    15    27    1
    30    16    28    1
    31    17    29    1
    32    18    30    1
@<TRIPOS>MOLECULE
../data/bude_mols_rdkit_confs2/molecule_14.pdb
 30 32 0 0 0
SMALL
GASTEIGER

@<TRIPOS>ATOM
      1  O1        -3.3140   -2.1270    1.1790 O.2     1  UNL1       -0.2658
      2  C1        -2.3700   -1.5340    0.6130 C.ar    1  UNL1        0.2725
      3  N1        -1.1240   -2.0280    0.5480 N.ar    1  UNL1       -0.2425
      4  N2        -0.1330   -1.4030   -0.0460 N.ar    1  UNL1       -0.1750
      5  C2        -0.2960   -0.1860   -0.6510 C.ar    1  UNL1        0.0736
      6  C3         0.8970    0.4410   -1.2260 C.3     1  UNL1        0.0185
      7  C4         2.0570    0.0920   -0.3340 C.ar    1  UNL1       -0.0232
      8  C5         2.5690    0.9540    0.6030 C.ar    1  UNL1       -0.0568
      9  C6         3.6260    0.6390    1.4330 C.ar    1  UNL1       -0.0614
     10  C7         4.2040   -0.6010    1.3270 C.ar    1  UNL1       -0.0604
     11  C8         3.7080   -1.4860    0.3930 C.ar    1  UNL1       -0.0431
     12  C9         2.6560   -1.1500   -0.4230 C.ar    1  UNL1        0.0445
     13 CL1         2.0440   -2.2800   -1.6280 Cl      1  UNL1       -0.0832
     14  C10       -1.5640    0.3520   -0.6070 C.ar    1  UNL1        0.0106
     15  C11       -1.7690    1.5630   -1.2290 C.ar    1  UNL1       -0.0521
     16  C12       -3.0420    2.1140   -1.2200 C.ar    1  UNL1       -0.0611
     17  C13       -4.1100    1.4690   -0.5970 C.ar    1  UNL1       -0.0610
     18  C14       -3.8740    0.2550    0.0200 C.ar    1  UNL1       -0.0487
     19  C15       -2.6130   -0.3190    0.0270 C.ar    1  UNL1        0.0496
     20 H          -0.9439   -2.9011    0.9657 H       1  UNL1        0.1921
     21 H           0.7706    1.5028   -1.2644 H       1  UNL1        0.0378
     22 H           1.0663    0.0918   -2.2232 H       1  UNL1        0.0378
     23 H           2.1405    1.8886    0.6920 H       1  UNL1        0.0621
     24 H           3.9754    1.3241    2.1212 H       1  UNL1        0.0618
     25 H           4.9948   -0.8662    1.9347 H       1  UNL1        0.0618
     26 H           4.1366   -2.4207    0.3054 H       1  UNL1        0.0632
     27 H          -0.9887    2.0526   -1.6942 H       1  UNL1        0.0624
     28 H          -3.2023    3.0214   -1.6847 H       1  UNL1        0.0618
     29 H          -5.0532    1.8878   -0.5967 H       1  UNL1        0.0618
     30 H          -4.6540   -0.2346    0.4856 H       1  UNL1        0.0625
@<TRIPOS>BOND
     1     1     2    2
     2     2     3   ar
     3     2    19   ar
     4     3     4   ar
     5     4     5   ar
     6     5     6    1
     7     5    14   ar
     8     6     7    1
     9     7     8   ar
    10     7    12   ar
    11     8     9   ar
    12     9    10   ar
    13    10    11   ar
    14    11    12   ar
    15    12    13    1
    16    14    15   ar
    17    14    19   ar
    18    15    16   ar
    19    16    17   ar
    20    17    18   ar
    21    18    19   ar
    22     3    20    1
    23     6    21    1
    24     6    22    1
    25     8    23    1
    26     9    24    1
    27    10    25    1
    28    11    26    1
    29    15    27    1
    30    16    28    1
    31    17    29    1
    32    18    30    1
@<TRIPOS>MOLECULE
../data/bude_mols_rdkit_confs2/molecule_14.pdb
 30 32 0 0 0
SMALL
GASTEIGER

@<TRIPOS>ATOM
      1  O1         2.7050    3.0740   -0.1560 O.2     1  UNL1       -0.2658
      2  C1         1.9370    2.0990   -0.2340 C.ar    1  UNL1        0.2725
      3  N1         0.6230    2.2930   -0.4330 N.ar    1  UNL1       -0.2425
      4  N2        -0.1520    1.2440   -0.5100 N.ar    1  UNL1       -0.1750
      5  C2         0.3180   -0.0350   -0.3970 C.ar    1  UNL1        0.0736
      6  C3        -0.6270   -1.1920   -0.5040 C.3     1  UNL1        0.0185
      7  C4        -1.9670   -0.6270   -0.1540 C.ar    1  UNL1       -0.0232
      8  C5        -2.8980   -0.2700   -1.1170 C.ar    1  UNL1       -0.0568
      9  C6        -4.1280    0.2810   -0.7690 C.ar    1  UNL1       -0.0614
     10  C7        -4.4580    0.4900    0.5500 C.ar    1  UNL1       -0.0604
     11  C8        -3.5220    0.1310    1.5100 C.ar    1  UNL1       -0.0431
     12  C9        -2.2940   -0.4190    1.1680 C.ar    1  UNL1        0.0445
     13 CL1        -1.1540   -0.8630    2.4510 Cl      1  UNL1       -0.0832
     14  C10        1.6400   -0.2580   -0.1960 C.ar    1  UNL1        0.0106
     15  C11        2.1590   -1.5210   -0.0770 C.ar    1  UNL1       -0.0521
     16  C12        3.5210   -1.7570    0.1300 C.ar    1  UNL1       -0.0611
     17  C13        4.3330   -0.6510    0.2100 C.ar    1  UNL1       -0.0610
     18  C14        3.8160    0.6220    0.0910 C.ar    1  UNL1       -0.0487
     19  C15        2.4780    0.8420   -0.1110 C.ar    1  UNL1        0.0496
     20 H           0.2536    3.2016   -0.5186 H       1  UNL1        0.1921
     21 H          -0.3538   -1.9661    0.1823 H       1  UNL1        0.0378
     22 H          -0.6172   -1.6317   -1.4794 H       1  UNL1        0.0378
     23 H          -2.6743   -0.4159   -2.1138 H       1  UNL1        0.0621
     24 H          -4.8003    0.5357   -1.5093 H       1  UNL1        0.0618
     25 H          -5.3676    0.8985    0.8159 H       1  UNL1        0.0618
     26 H          -3.7454    0.2772    2.5069 H       1  UNL1        0.0632
     27 H           1.5197   -2.3285   -0.1427 H       1  UNL1        0.0624
     28 H           3.8980   -2.7136    0.2183 H       1  UNL1        0.0618
     29 H           5.3462   -0.7752    0.3616 H       1  UNL1        0.0618
     30 H           4.4536    1.4309    0.1558 H       1  UNL1        0.0625
@<TRIPOS>BOND
     1     1     2    2
     2     2     3   ar
     3     2    19   ar
     4     3     4   ar
     5     4     5   ar
     6     5     6    1
     7     5    14   ar
     8     6     7    1
     9     7     8   ar
    10     7    12   ar
    11     8     9   ar
    12     9    10   ar
    13    10    11   ar
    14    11    12   ar
    15    12    13    1
    16    14    15   ar
    17    14    19   ar
    18    15    16   ar
    19    16    17   ar
    20    17    18   ar
    21    18    19   ar
    22     3    20    1
    23     6    21    1
    24     6    22    1
    25     8    23    1
    26     9    24    1
    27    10    25    1
    28    11    26    1
    29    15    27    1
    30    16    28    1
    31    17    29    1
    32    18    30    1
@<TRIPOS>MOLECULE
../data/bude_mols_rdkit_confs2/molecule_14.pdb
 30 32 0 0 0
SMALL
GASTEIGER

@<TRIPOS>ATOM
      1  O1         4.0740   -1.8220    0.9140 O.2     1  UNL1       -0.2658
      2  C1         2.9650   -1.6270    0.3740 C.ar    1  UNL1        0.2725
      3  N1         2.1380   -2.6020   -0.0210 N.ar    1  UNL1       -0.2425
      4  N2         0.9820   -2.3380   -0.5850 N.ar    1  UNL1       -0.1750
      5  C2         0.5220   -1.0950   -0.8180 C.ar    1  UNL1        0.0736
      6  C3        -0.7780   -0.8240   -1.4350 C.3     1  UNL1        0.0185
      7  C4        -1.7980   -0.3850   -0.4730 C.ar    1  UNL1       -0.0232
      8  C5        -1.7270   -0.6500    0.8790 C.ar    1  UNL1       -0.0568
      9  C6        -2.6980   -0.2270    1.7480 C.ar    1  UNL1       -0.0614
     10  C7        -3.7820    0.4770    1.3100 C.ar    1  UNL1       -0.0604
     11  C8        -3.8800    0.7560   -0.0290 C.ar    1  UNL1       -0.0431
     12  C9        -2.8860    0.3240   -0.9230 C.ar    1  UNL1        0.0445
     13 CL1        -3.1280    0.7490   -2.6140 Cl      1  UNL1       -0.0832
     14  C10        1.3340   -0.0470   -0.4310 C.ar    1  UNL1        0.0106
     15  C11        0.9560    1.2640   -0.6210 C.ar    1  UNL1       -0.0521
     16  C12        1.7550    2.3100   -0.2350 C.ar    1  UNL1       -0.0611
     17  C13        2.9670    2.0480    0.3550 C.ar    1  UNL1       -0.0610
     18  C14        3.3540    0.7480    0.5500 C.ar    1  UNL1       -0.0487
     19  C15        2.5660   -0.3150    0.1700 C.ar    1  UNL1        0.0496
     20 H           2.4028   -3.5405    0.1146 H       1  UNL1        0.1921
     21 H          -1.1218   -1.7192   -1.9096 H       1  UNL1        0.0378
     22 H          -0.6369   -0.0258   -2.1335 H       1  UNL1        0.0378
     23 H          -0.9214   -1.1808    1.2454 H       1  UNL1        0.0621
     24 H          -2.6080   -0.4448    2.7527 H       1  UNL1        0.0618
     25 H          -4.5101    0.7916    1.9703 H       1  UNL1        0.0618
     26 H          -4.6906    1.2877   -0.3830 H       1  UNL1        0.0632
     27 H           0.0467    1.4647   -1.0660 H       1  UNL1        0.0624
     28 H           1.4485    3.2837   -0.3864 H       1  UNL1        0.0618
     29 H           3.5811    2.8235    0.6490 H       1  UNL1        0.0618
     30 H           4.2654    0.5598    0.9960 H       1  UNL1        0.0625
@<TRIPOS>BOND
     1     1     2    2
     2     2     3   ar
     3     2    19   ar
     4     3     4   ar
     5     4     5   ar
     6     5     6    1
     7     5    14   ar
     8     6     7    1
     9     7     8   ar
    10     7    12   ar
    11     8     9   ar
    12     9    10   ar
    13    10    11   ar
    14    11    12   ar
    15    12    13    1
    16    14    15   ar
    17    14    19   ar
    18    15    16   ar
    19    16    17   ar
    20    17    18   ar
    21    18    19   ar
    22     3    20    1
    23     6    21    1
    24     6    22    1
    25     8    23    1
    26     9    24    1
    27    10    25    1
    28    11    26    1
    29    15    27    1
    30    16    28    1
    31    17    29    1
    32    18    30    1
@<TRIPOS>MOLECULE
../data/bude_mols_rdkit_confs2/molecule_14.pdb
 30 32 0 0 0
SMALL
GASTEIGER

@<TRIPOS>ATOM
      1  O1         4.0750   -2.0300    0.9350 O.2     1  UNL1       -0.2658
      2  C1         2.9720   -1.6940    0.4010 C.ar    1  UNL1        0.2725
      3  N1         2.0930   -2.6100   -0.0340 N.ar    1  UNL1       -0.2425
      4  N2         0.9430   -2.3020   -0.5910 N.ar    1  UNL1       -0.1750
      5  C2         0.5250   -1.0150   -0.7830 C.ar    1  UNL1        0.0736
      6  C3        -0.7430   -0.6660   -1.3900 C.3     1  UNL1        0.0185
      7  C4        -1.8480   -0.2860   -0.4930 C.ar    1  UNL1       -0.0232
      8  C5        -3.0010    0.2030   -1.1270 C.ar    1  UNL1       -0.0568
      9  C6        -4.0920    0.5870   -0.4230 C.ar    1  UNL1       -0.0614
     10  C7        -4.1340    0.5190    0.9610 C.ar    1  UNL1       -0.0604
     11  C8        -2.9990    0.0380    1.5730 C.ar    1  UNL1       -0.0431
     12  C9        -1.8760   -0.3580    0.8570 C.ar    1  UNL1        0.0445
     13 CL1        -0.4590   -0.9810    1.6960 Cl      1  UNL1       -0.0832
     14  C10        1.4080   -0.0510   -0.3450 C.ar    1  UNL1        0.0106
     15  C11        1.1200    1.3100   -0.4740 C.ar    1  UNL1       -0.0521
     16  C12        1.9760    2.2890   -0.0490 C.ar    1  UNL1       -0.0611
     17  C13        3.1710    1.9470    0.5290 C.ar    1  UNL1       -0.0610
     18  C14        3.4970    0.6200    0.6770 C.ar    1  UNL1       -0.0487
     19  C15        2.6190   -0.3700    0.2410 C.ar    1  UNL1        0.0496
     20 H           2.3214   -3.5620    0.0694 H       1  UNL1        0.1921
     21 H          -1.0690   -1.5117   -1.9587 H       1  UNL1        0.0378
     22 H          -0.5380    0.2177   -1.9574 H       1  UNL1        0.0378
     23 H          -3.0176    0.2716   -2.1566 H       1  UNL1        0.0621
     24 H          -4.9170    0.9409   -0.9320 H       1  UNL1        0.0618
     25 H          -4.9648    0.8110    1.4990 H       1  UNL1        0.0618
     26 H          -2.9813   -0.0312    2.6025 H       1  UNL1        0.0632
     27 H           0.2256    1.5880   -0.9073 H       1  UNL1        0.0624
     28 H           1.7226    3.2828   -0.1633 H       1  UNL1        0.0618
     29 H           3.8214    2.6808    0.8508 H       1  UNL1        0.0618
     30 H           4.3947    0.3562    1.1123 H       1  UNL1        0.0625
@<TRIPOS>BOND
     1     1     2    2
     2     2     3   ar
     3     2    19   ar
     4     3     4   ar
     5     4     5   ar
     6     5     6    1
     7     5    14   ar
     8     6     7    1
     9     7     8   ar
    10     7    12   ar
    11     8     9   ar
    12     9    10   ar
    13    10    11   ar
    14    11    12   ar
    15    12    13    1
    16    14    15   ar
    17    14    19   ar
    18    15    16   ar
    19    16    17   ar
    20    17    18   ar
    21    18    19   ar
    22     3    20    1
    23     6    21    1
    24     6    22    1
    25     8    23    1
    26     9    24    1
    27    10    25    1
    28    11    26    1
    29    15    27    1
    30    16    28    1
    31    17    29    1
    32    18    30    1
@<TRIPOS>MOLECULE
../data/bude_mols_rdkit_confs2/molecule_14.pdb
 30 32 0 0 0
SMALL
GASTEIGER

@<TRIPOS>ATOM
      1  O1        -3.4580   -0.1010   -2.8610 O.2     1  UNL1       -0.2658
      2  C1        -2.4970    0.2990   -2.1830 C.ar    1  UNL1        0.2725
      3  N1        -1.5270    1.0590   -2.7250 N.ar    1  UNL1       -0.2425
      4  N2        -0.5080    1.4790   -1.9960 N.ar    1  UNL1       -0.1750
      5  C2        -0.3480    1.1990   -0.6950 C.ar    1  UNL1        0.0736
      6  C3         0.8000    1.6970    0.0380 C.3     1  UNL1        0.0185
      7  C4         1.7920    0.5910    0.2430 C.ar    1  UNL1       -0.0232
      8  C5         1.5430   -0.6730   -0.2490 C.ar    1  UNL1       -0.0568
      9  C6         2.4430   -1.7280   -0.0790 C.ar    1  UNL1       -0.0614
     10  C7         3.6160   -1.4780    0.6090 C.ar    1  UNL1       -0.0604
     11  C8         3.8570   -0.2180    1.0960 C.ar    1  UNL1       -0.0431
     12  C9         2.9710    0.8080    0.9250 C.ar    1  UNL1        0.0445
     13 CL1         3.2630    2.4140    1.5380 Cl      1  UNL1       -0.0832
     14  C10       -1.3420    0.4110   -0.1070 C.ar    1  UNL1        0.0106
     15  C11       -1.1730    0.1260    1.2320 C.ar    1  UNL1       -0.0521
     16  C12       -2.1600   -0.6600    1.8240 C.ar    1  UNL1       -0.0611
     17  C13       -3.2500   -1.1320    1.1210 C.ar    1  UNL1       -0.0610
     18  C14       -3.3780   -0.8210   -0.2170 C.ar    1  UNL1       -0.0487
     19  C15       -2.4150   -0.0400   -0.8480 C.ar    1  UNL1        0.0496
     20 H          -1.5775    1.3051   -3.6769 H       1  UNL1        0.1921
     21 H           0.4802    2.0679    0.9893 H       1  UNL1        0.0378
     22 H           1.2605    2.4850   -0.5205 H       1  UNL1        0.0378
     23 H           0.6629   -0.8453   -0.7596 H       1  UNL1        0.0621
     24 H           2.2382   -2.6666   -0.4560 H       1  UNL1        0.0618
     25 H           4.3045   -2.2328    0.7550 H       1  UNL1        0.0618
     26 H           4.7353   -0.0396    1.6077 H       1  UNL1        0.0632
     27 H          -0.3614    0.4751    1.7654 H       1  UNL1        0.0624
     28 H          -2.0727   -0.8978    2.8244 H       1  UNL1        0.0618
     29 H          -3.9622   -1.7119    1.5916 H       1  UNL1        0.0618
     30 H          -4.1899   -1.1685   -0.7510 H       1  UNL1        0.0625
@<TRIPOS>BOND
     1     1     2    2
     2     2     3   ar
     3     2    19   ar
     4     3     4   ar
     5     4     5   ar
     6     5     6    1
     7     5    14   ar
     8     6     7    1
     9     7     8   ar
    10     7    12   ar
    11     8     9   ar
    12     9    10   ar
    13    10    11   ar
    14    11    12   ar
    15    12    13    1
    16    14    15   ar
    17    14    19   ar
    18    15    16   ar
    19    16    17   ar
    20    17    18   ar
    21    18    19   ar
    22     3    20    1
    23     6    21    1
    24     6    22    1
    25     8    23    1
    26     9    24    1
    27    10    25    1
    28    11    26    1
    29    15    27    1
    30    16    28    1
    31    17    29    1
    32    18    30    1
@<TRIPOS>MOLECULE
../data/bude_mols_rdkit_confs2/molecule_14.pdb
 30 32 0 0 0
SMALL
GASTEIGER

@<TRIPOS>ATOM
      1  O1        -3.3770   -1.8930    1.7880 O.2     1  UNL1       -0.2658
      2  C1        -2.4970   -1.0760    1.4820 C.ar    1  UNL1        0.2725
      3  N1        -1.5760   -0.6600    2.3620 N.ar    1  UNL1       -0.2425
      4  N2        -0.6370    0.2040    2.0500 N.ar    1  UNL1       -0.1750
      5  C2        -0.5460    0.7430    0.7740 C.ar    1  UNL1        0.0736
      6  C3         0.6500    1.5820    0.5750 C.3     1  UNL1        0.0185
      7  C4         1.8760    0.7830    0.2630 C.ar    1  UNL1       -0.0232
      8  C5         2.4990    0.1770    1.3800 C.ar    1  UNL1       -0.0568
      9  C6         3.5620   -0.6720    1.2850 C.ar    1  UNL1       -0.0614
     10  C7         4.0320   -0.9320    0.0120 C.ar    1  UNL1       -0.0604
     11  C8         3.4500   -0.3580   -1.0820 C.ar    1  UNL1       -0.0431
     12  C9         2.3670    0.5060   -0.9590 C.ar    1  UNL1        0.0445
     13 CL1         1.7720    1.2760   -2.4530 Cl      1  UNL1       -0.0832
     14  C10       -1.4720    0.3320   -0.1130 C.ar    1  UNL1        0.0106
     15  C11       -1.4900    0.8460   -1.3930 C.ar    1  UNL1       -0.0521
     16  C12       -2.4320    0.4730   -2.3200 C.ar    1  UNL1       -0.0611
     17  C13       -3.4210   -0.4380   -2.0220 C.ar    1  UNL1       -0.0610
     18  C14       -3.4210   -0.9560   -0.7460 C.ar    1  UNL1       -0.0487
     19  C15       -2.4770   -0.5830    0.1850 C.ar    1  UNL1        0.0496
     20 H          -1.6042   -1.0163    3.2793 H       1  UNL1        0.1921
     21 H           0.8263    2.1429    1.4690 H       1  UNL1        0.0378
     22 H           0.4597    2.2190   -0.2634 H       1  UNL1        0.0378
     23 H           2.1280    0.3896    2.3192 H       1  UNL1        0.0621
     24 H           3.9929   -1.0981    2.1204 H       1  UNL1        0.0618
     25 H           4.8342   -1.5689   -0.1139 H       1  UNL1        0.0618
     26 H           3.8221   -0.5701   -2.0209 H       1  UNL1        0.0632
     27 H          -0.7706    1.5348   -1.6633 H       1  UNL1        0.0624
     28 H          -2.3979    0.8863   -3.2650 H       1  UNL1        0.0618
     29 H          -4.1271   -0.7186   -2.7204 H       1  UNL1        0.0618
     30 H          -4.1463   -1.6406   -0.4808 H       1  UNL1        0.0625
@<TRIPOS>BOND
     1     1     2    2
     2     2     3   ar
     3     2    19   ar
     4     3     4   ar
     5     4     5   ar
     6     5     6    1
     7     5    14   ar
     8     6     7    1
     9     7     8   ar
    10     7    12   ar
    11     8     9   ar
    12     9    10   ar
    13    10    11   ar
    14    11    12   ar
    15    12    13    1
    16    14    15   ar
    17    14    19   ar
    18    15    16   ar
    19    16    17   ar
    20    17    18   ar
    21    18    19   ar
    22     3    20    1
    23     6    21    1
    24     6    22    1
    25     8    23    1
    26     9    24    1
    27    10    25    1
    28    11    26    1
    29    15    27    1
    30    16    28    1
    31    17    29    1
    32    18    30    1
