@<TRIPOS>MOLECULE
../data/bude_mols_rdkit_confs2/molecule_93.pdb
 37 39 0 0 0
SMALL
GASTEIGER

@<TRIPOS>ATOM
      1  N1        -4.4400   -0.4830    1.7270 N.am    1  UNL1       -0.3129
      2  C1        -4.7530    0.2160    0.5460 C.2     1  UNL1        0.3039
      3  O1        -5.9610    0.4070    0.2630 O.2     1  UNL1       -0.2525
      4  N2        -3.7700    0.7150   -0.3410 N.am    1  UNL1       -0.2551
      5  C2        -3.9640    1.4440   -1.5790 C.3     1  UNL1        0.0253
      6  C3        -2.7320    2.2890   -1.6750 C.3     1  UNL1       -0.0096
      7  C4        -1.7040    1.5050   -0.9560 C.ar    1  UNL1       -0.0243
      8  C5        -0.3040    1.5870   -0.9800 C.ar    1  UNL1       -0.0550
      9  C6         0.3770    0.7000   -0.1750 C.ar    1  UNL1       -0.0390
     10  C7        -0.2160   -0.2400    0.6310 C.ar    1  UNL1        0.0498
     11  N3         0.4590   -1.1440    1.4780 N.pl3   1  UNL1       -0.2160
     12  S1         1.7290   -2.1820    1.0050 S.O2    1  UNL1        0.0780
     13  O2         2.0490   -3.1570    2.1230 O.2     1  UNL1       -0.1498
     14  O3         1.1530   -3.0670   -0.1000 O.2     1  UNL1       -0.1498
     15  C8         3.1400   -1.3880    0.4200 C.ar    1  UNL1        0.1843
     16  C9         3.3230   -1.1890   -0.9420 C.ar    1  UNL1        0.1907
     17  F1         2.3810   -1.6240   -1.8280 F       1  UNL1       -0.2002
     18  C10        4.4280   -0.5620   -1.4710 C.ar    1  UNL1        0.1983
     19  F2         4.5590   -0.3930   -2.8090 F       1  UNL1       -0.1993
     20  C11        5.3940   -0.1140   -0.5880 C.ar    1  UNL1        0.1992
     21  F3         6.5100    0.5120   -1.0280 F       1  UNL1       -0.1993
     22  C12        5.2300   -0.3030    0.7810 C.ar    1  UNL1        0.1983
     23  F4         6.2020    0.1520    1.6200 F       1  UNL1       -0.1993
     24  C13        4.1260   -0.9290    1.2970 C.ar    1  UNL1        0.1907
     25  F5         3.9530   -1.1210    2.6400 F       1  UNL1       -0.2002
     26  C14       -1.6180   -0.2840    0.6220 C.ar    1  UNL1       -0.0176
     27  C15       -2.3420    0.5830   -0.1670 C.ar    1  UNL1        0.0427
     28 H          -5.1616   -0.8101    2.3113 H       1  UNL1        0.1465
     29 H          -3.4994   -0.6447    1.9687 H       1  UNL1        0.1465
     30 H          -4.8434    2.0517   -1.5326 H       1  UNL1        0.0472
     31 H          -4.1011    0.8042   -2.4256 H       1  UNL1        0.0472
     32 H          -2.8842    3.2382   -1.2051 H       1  UNL1        0.0329
     33 H          -2.4556    2.5010   -2.6867 H       1  UNL1        0.0329
     34 H           0.1899    2.2753   -1.5694 H       1  UNL1        0.0621
     35 H           1.4080    0.7456   -0.1782 H       1  UNL1        0.0637
     36 H           0.1741   -1.1791    2.4197 H       1  UNL1        0.1737
     37 H          -2.1117   -0.9721    1.2118 H       1  UNL1        0.0655
@<TRIPOS>BOND
     1     1     2   am
     2     2     3    2
     3     2     4   am
     4     4     5    1
     5     4    27    1
     6     5     6    1
     7     6     7    1
     8     7     8   ar
     9     7    27   ar
    10     8     9   ar
    11     9    10   ar
    12    10    11    1
    13    10    26   ar
    14    11    12    1
    15    12    13    2
    16    12    14    2
    17    12    15    1
    18    15    16   ar
    19    15    24   ar
    20    16    17    1
    21    16    18   ar
    22    18    19    1
    23    18    20   ar
    24    20    21    1
    25    20    22   ar
    26    22    23    1
    27    22    24   ar
    28    24    25    1
    29    26    27   ar
    30     1    28    1
    31     1    29    1
    32     5    30    1
    33     5    31    1
    34     6    32    1
    35     6    33    1
    36     8    34    1
    37     9    35    1
    38    11    36    1
    39    26    37    1
@<TRIPOS>MOLECULE
../data/bude_mols_rdkit_confs2/molecule_93.pdb
 37 39 0 0 0
SMALL
GASTEIGER

@<TRIPOS>ATOM
      1  N1        -4.2520    1.4140   -2.5610 N.am    1  UNL1       -0.3129
      2  C1        -3.0990    1.2970   -1.7540 C.2     1  UNL1        0.3039
      3  O1        -2.1200    2.0490   -1.9480 O.2     1  UNL1       -0.2525
      4  N2        -3.0930    0.3210   -0.7420 N.am    1  UNL1       -0.2551
      5  C2        -4.1140   -0.6470   -0.3520 C.3     1  UNL1        0.0253
      6  C3        -3.2630   -1.8330   -0.0220 C.3     1  UNL1       -0.0096
      7  C4        -2.0730   -1.2240    0.6330 C.ar    1  UNL1       -0.0243
      8  C5        -1.1350   -1.7110    1.5320 C.ar    1  UNL1       -0.0550
      9  C6        -0.1340   -0.8670    1.9420 C.ar    1  UNL1       -0.0390
     10  C7         0.0040    0.4370    1.5200 C.ar    1  UNL1        0.0498
     11  N3         1.0320    1.3200    1.9430 N.pl3   1  UNL1       -0.2160
     12  S1         2.6520    0.8150    1.9760 S.O2    1  UNL1        0.0780
     13  O2         3.5500    1.8840    2.5560 O.2     1  UNL1       -0.1498
     14  O3         2.7790   -0.3700    2.8960 O.2     1  UNL1       -0.1498
     15  C8         3.2780    0.3620    0.4140 C.ar    1  UNL1        0.1843
     16  C9         3.1960   -0.9410   -0.0160 C.ar    1  UNL1        0.1907
     17  F1         2.6370   -1.8990    0.7590 F       1  UNL1       -0.2002
     18  C10        3.6830   -1.3380   -1.2590 C.ar    1  UNL1        0.1983
     19  F2         3.6000   -2.6250   -1.6820 F       1  UNL1       -0.1993
     20  C11        4.2710   -0.3930   -2.0950 C.ar    1  UNL1        0.1992
     21  F3         4.7440   -0.7490   -3.2900 F       1  UNL1       -0.1993
     22  C12        4.3610    0.9330   -1.6700 C.ar    1  UNL1        0.1983
     23  F4         4.9410    1.8090   -2.5220 F       1  UNL1       -0.1993
     24  C13        3.8660    1.2700   -0.4370 C.ar    1  UNL1        0.1907
     25  F5         3.9570    2.5590   -0.0330 F       1  UNL1       -0.2002
     26  C14       -0.9700    0.8730    0.6150 C.ar    1  UNL1       -0.0176
     27  C15       -1.9960    0.0680    0.1720 C.ar    1  UNL1        0.0427
     28 H          -4.2850    2.0884   -3.2775 H       1  UNL1        0.1465
     29 H          -5.0228    0.8212   -2.4071 H       1  UNL1        0.1465
     30 H          -4.7864   -0.8565   -1.1575 H       1  UNL1        0.0472
     31 H          -4.7510   -0.3230    0.4443 H       1  UNL1        0.0472
     32 H          -2.9839   -2.3638   -0.9081 H       1  UNL1        0.0329
     33 H          -3.7623   -2.5495    0.5962 H       1  UNL1        0.0329
     34 H          -1.1887   -2.6803    1.8822 H       1  UNL1        0.0621
     35 H           0.5615   -1.2333    2.6107 H       1  UNL1        0.0637
     36 H           0.8024    2.2363    2.2205 H       1  UNL1        0.1737
     37 H          -0.9172    1.8418    0.2635 H       1  UNL1        0.0655
@<TRIPOS>BOND
     1     1     2   am
     2     2     3    2
     3     2     4   am
     4     4     5    1
     5     4    27    1
     6     5     6    1
     7     6     7    1
     8     7     8   ar
     9     7    27   ar
    10     8     9   ar
    11     9    10   ar
    12    10    11    1
    13    10    26   ar
    14    11    12    1
    15    12    13    2
    16    12    14    2
    17    12    15    1
    18    15    16   ar
    19    15    24   ar
    20    16    17    1
    21    16    18   ar
    22    18    19    1
    23    18    20   ar
    24    20    21    1
    25    20    22   ar
    26    22    23    1
    27    22    24   ar
    28    24    25    1
    29    26    27   ar
    30     1    28    1
    31     1    29    1
    32     5    30    1
    33     5    31    1
    34     6    32    1
    35     6    33    1
    36     8    34    1
    37     9    35    1
    38    11    36    1
    39    26    37    1
@<TRIPOS>MOLECULE
../data/bude_mols_rdkit_confs2/molecule_93.pdb
 37 39 0 0 0
SMALL
GASTEIGER

@<TRIPOS>ATOM
      1  N1        -4.1510    2.1630    1.6020 N.am    1  UNL1       -0.3129
      2  C1        -3.0510    1.6580    0.8670 C.2     1  UNL1        0.3039
      3  O1        -2.2150    2.4690    0.4200 O.2     1  UNL1       -0.2525
      4  N2        -2.9160    0.2560    0.6530 N.am    1  UNL1       -0.2551
      5  C2        -3.8290   -0.7610    1.1290 C.3     1  UNL1        0.0253
      6  C3        -2.9500   -1.9540    1.3080 C.3     1  UNL1       -0.0096
      7  C4        -1.8680   -1.7210    0.3130 C.ar    1  UNL1       -0.0243
      8  C5        -0.9520   -2.5980   -0.2250 C.ar    1  UNL1       -0.0550
      9  C6        -0.0460   -2.1330   -1.1340 C.ar    1  UNL1       -0.0390
     10  C7        -0.0010   -0.8140   -1.5470 C.ar    1  UNL1        0.0498
     11  N3         0.9740   -0.4280   -2.4920 N.pl3   1  UNL1       -0.2160
     12  S1         1.9520    0.9550   -2.4140 S.O2    1  UNL1        0.0780
     13  O2         1.1740    2.2320   -2.2680 O.2     1  UNL1       -0.1498
     14  O3         2.8160    1.0300   -3.6370 O.2     1  UNL1       -0.1498
     15  C8         2.9360    0.8300   -0.9580 C.ar    1  UNL1        0.1843
     16  C9         2.4710    1.3560    0.2290 C.ar    1  UNL1        0.1907
     17  F1         1.2730    1.9660    0.2760 F       1  UNL1       -0.2002
     18  C10        3.2000    1.2850    1.3980 C.ar    1  UNL1        0.1983
     19  F2         2.7060    1.8110    2.5240 F       1  UNL1       -0.1993
     20  C11        4.4230    0.6750    1.3930 C.ar    1  UNL1        0.1992
     21  F3         5.1440    0.6050    2.5530 F       1  UNL1       -0.1993
     22  C12        4.9250    0.1360    0.2290 C.ar    1  UNL1        0.1983
     23  F4         6.1350   -0.4540    0.2740 F       1  UNL1       -0.1993
     24  C13        4.1700    0.2190   -0.9470 C.ar    1  UNL1        0.1907
     25  F5         4.6590   -0.3040   -2.0710 F       1  UNL1       -0.2002
     26  C14       -0.9320    0.0310   -0.9860 C.ar    1  UNL1       -0.0176
     27  C15       -1.8660   -0.3950   -0.0640 C.ar    1  UNL1        0.0427
     28 H          -4.2419    3.1323    1.7484 H       1  UNL1        0.1465
     29 H          -4.8249    1.5448    1.9666 H       1  UNL1        0.1465
     30 H          -4.5964   -0.9547    0.4089 H       1  UNL1        0.0472
     31 H          -4.3400   -0.4788    2.0257 H       1  UNL1        0.0472
     32 H          -3.4805   -2.8586    1.0953 H       1  UNL1        0.0329
     33 H          -2.5875   -2.0659    2.3085 H       1  UNL1        0.0329
     34 H          -0.9507   -3.5913    0.0549 H       1  UNL1        0.0621
     35 H           0.6371   -2.7966   -1.5315 H       1  UNL1        0.0637
     36 H           1.0980   -1.0179   -3.2704 H       1  UNL1        0.1737
     37 H          -0.9313    1.0241   -1.2667 H       1  UNL1        0.0655
@<TRIPOS>BOND
     1     1     2   am
     2     2     3    2
     3     2     4   am
     4     4     5    1
     5     4    27    1
     6     5     6    1
     7     6     7    1
     8     7     8   ar
     9     7    27   ar
    10     8     9   ar
    11     9    10   ar
    12    10    11    1
    13    10    26   ar
    14    11    12    1
    15    12    13    2
    16    12    14    2
    17    12    15    1
    18    15    16   ar
    19    15    24   ar
    20    16    17    1
    21    16    18   ar
    22    18    19    1
    23    18    20   ar
    24    20    21    1
    25    20    22   ar
    26    22    23    1
    27    22    24   ar
    28    24    25    1
    29    26    27   ar
    30     1    28    1
    31     1    29    1
    32     5    30    1
    33     5    31    1
    34     6    32    1
    35     6    33    1
    36     8    34    1
    37     9    35    1
    38    11    36    1
    39    26    37    1
@<TRIPOS>MOLECULE
../data/bude_mols_rdkit_confs2/molecule_93.pdb
 37 39 0 0 0
SMALL
GASTEIGER

@<TRIPOS>ATOM
      1  N1        -5.8660   -0.2490    1.2290 N.am    1  UNL1       -0.3129
      2  C1        -4.4610    0.0260    1.2440 C.2     1  UNL1        0.3039
      3  O1        -3.9650    0.6260    2.2170 O.2     1  UNL1       -0.2525
      4  N2        -3.6980   -0.4120    0.1260 N.am    1  UNL1       -0.2551
      5  C2        -4.1300   -1.1120   -1.0600 C.3     1  UNL1        0.0253
      6  C3        -2.8860   -1.8870   -1.4410 C.3     1  UNL1       -0.0096
      7  C4        -1.7550   -1.0630   -0.9120 C.ar    1  UNL1       -0.0243
      8  C5        -0.4000   -1.0160   -1.1640 C.ar    1  UNL1       -0.0550
      9  C6         0.4170   -0.1160   -0.4940 C.ar    1  UNL1       -0.0390
     10  C7        -0.0810    0.7550    0.4350 C.ar    1  UNL1        0.0498
     11  N3         0.6890    1.7220    1.1510 N.pl3   1  UNL1       -0.2160
     12  S1         2.1180    1.4390    2.0200 S.O2    1  UNL1        0.0780
     13  O2         2.5690    2.7420    2.6710 O.2     1  UNL1       -0.1498
     14  O3         1.8990    0.4560    3.1470 O.2     1  UNL1       -0.1498
     15  C8         3.4160    0.8420    1.0300 C.ar    1  UNL1        0.1843
     16  C9         3.6950   -0.5030    0.8850 C.ar    1  UNL1        0.1907
     17  F1         2.8980   -1.3820    1.5620 F       1  UNL1       -0.2002
     18  C10        4.7200   -0.9930    0.1050 C.ar    1  UNL1        0.1983
     19  F2         4.9600   -2.3340   -0.0100 F       1  UNL1       -0.1993
     20  C11        5.5280   -0.1120   -0.5810 C.ar    1  UNL1        0.1992
     21  F3         6.5490   -0.5770   -1.3590 F       1  UNL1       -0.1993
     22  C12        5.2760    1.2340   -0.4570 C.ar    1  UNL1        0.1983
     23  F4         6.0890    2.0870   -1.1440 F       1  UNL1       -0.1993
     24  C13        4.2500    1.7080    0.3250 C.ar    1  UNL1        0.1907
     25  F5         4.0040    3.0270    0.4460 F       1  UNL1       -0.2002
     26  C14       -1.4630    0.6800    0.6670 C.ar    1  UNL1       -0.0176
     27  C15       -2.2910   -0.2030    0.0160 C.ar    1  UNL1        0.0427
     28 H          -6.4315    0.0365    1.9826 H       1  UNL1        0.1465
     29 H          -6.2666   -0.7236    0.4651 H       1  UNL1        0.1465
     30 H          -4.4138   -0.4285   -1.8328 H       1  UNL1        0.0472
     31 H          -4.9913   -1.7281   -0.9068 H       1  UNL1        0.0472
     32 H          -2.8147   -1.9893   -2.5037 H       1  UNL1        0.0329
     33 H          -2.8872   -2.8800   -1.0426 H       1  UNL1        0.0329
     34 H           0.0116   -1.6579   -1.8593 H       1  UNL1        0.0621
     35 H           1.4276   -0.1039   -0.7026 H       1  UNL1        0.0637
     36 H           0.3559    2.6484    1.1388 H       1  UNL1        0.1737
     37 H          -1.8786    1.3202    1.3615 H       1  UNL1        0.0655
@<TRIPOS>BOND
     1     1     2   am
     2     2     3    2
     3     2     4   am
     4     4     5    1
     5     4    27    1
     6     5     6    1
     7     6     7    1
     8     7     8   ar
     9     7    27   ar
    10     8     9   ar
    11     9    10   ar
    12    10    11    1
    13    10    26   ar
    14    11    12    1
    15    12    13    2
    16    12    14    2
    17    12    15    1
    18    15    16   ar
    19    15    24   ar
    20    16    17    1
    21    16    18   ar
    22    18    19    1
    23    18    20   ar
    24    20    21    1
    25    20    22   ar
    26    22    23    1
    27    22    24   ar
    28    24    25    1
    29    26    27   ar
    30     1    28    1
    31     1    29    1
    32     5    30    1
    33     5    31    1
    34     6    32    1
    35     6    33    1
    36     8    34    1
    37     9    35    1
    38    11    36    1
    39    26    37    1
@<TRIPOS>MOLECULE
../data/bude_mols_rdkit_confs2/molecule_93.pdb
 37 39 0 0 0
SMALL
GASTEIGER

@<TRIPOS>ATOM
      1  N1        -3.9230    2.2350   -1.9710 N.am    1  UNL1       -0.3129
      2  C1        -2.8840    1.7260   -1.1620 C.2     1  UNL1        0.3039
      3  O1        -1.9410    2.4650   -0.7840 O.2     1  UNL1       -0.2525
      4  N2        -2.8680    0.3690   -0.7510 N.am    1  UNL1       -0.2551
      5  C2        -3.8570   -0.6390   -1.0790 C.3     1  UNL1        0.0253
      6  C3        -3.0790   -1.9090   -1.0670 C.3     1  UNL1       -0.0096
      7  C4        -1.9880   -1.6420   -0.1040 C.ar    1  UNL1       -0.0243
      8  C5        -1.1450   -2.4930    0.5790 C.ar    1  UNL1       -0.0550
      9  C6        -0.1820   -1.9660    1.4450 C.ar    1  UNL1       -0.0390
     10  C7        -0.0610   -0.6050    1.6280 C.ar    1  UNL1        0.0498
     11  N3         0.9070   -0.0830    2.4980 N.pl3   1  UNL1       -0.2160
     12  S1         1.9320    1.2430    2.1150 S.O2    1  UNL1        0.0780
     13  O2         1.1370    2.4760    1.7800 O.2     1  UNL1       -0.1498
     14  O3         2.8290    1.5680    3.2790 O.2     1  UNL1       -0.1498
     15  C8         2.9040    0.7870    0.7340 C.ar    1  UNL1        0.1843
     16  C9         4.1260    0.1470    0.9150 C.ar    1  UNL1        0.1907
     17  F1         4.4940   -0.0950    2.1980 F       1  UNL1       -0.2002
     18  C10        4.9200   -0.2230   -0.1510 C.ar    1  UNL1        0.1983
     19  F2         6.1050   -0.8460    0.0510 F       1  UNL1       -0.1993
     20  C11        4.5250    0.0310   -1.4350 C.ar    1  UNL1        0.1992
     21  F3         5.2790   -0.3170   -2.5210 F       1  UNL1       -0.1993
     22  C12        3.3290    0.6600   -1.6430 C.ar    1  UNL1        0.1983
     23  F4         2.9050    0.9300   -2.9010 F       1  UNL1       -0.1993
     24  C13        2.5190    1.0380   -0.5640 C.ar    1  UNL1        0.1907
     25  F5         1.3380    1.6640   -0.7850 F       1  UNL1       -0.2002
     26  C14       -0.9190    0.2130    0.9310 C.ar    1  UNL1       -0.0176
     27  C15       -1.8910   -0.2770    0.0590 C.ar    1  UNL1        0.0427
     28 H          -3.9151    3.1805   -2.2453 H       1  UNL1        0.1465
     29 H          -4.6555    1.6445   -2.2609 H       1  UNL1        0.1465
     30 H          -4.2801   -0.4591   -2.0452 H       1  UNL1        0.0472
     31 H          -4.6818   -0.6499   -0.3974 H       1  UNL1        0.0472
     32 H          -2.6862   -2.1251   -2.0385 H       1  UNL1        0.0329
     33 H          -3.6729   -2.7569   -0.7965 H       1  UNL1        0.0329
     34 H          -1.2245   -3.5140    0.4516 H       1  UNL1        0.0621
     35 H           0.4476   -2.6054    1.9548 H       1  UNL1        0.0637
     36 H           1.0058   -0.5020    3.3834 H       1  UNL1        0.1737
     37 H          -0.8402    1.2340    1.0587 H       1  UNL1        0.0655
@<TRIPOS>BOND
     1     1     2   am
     2     2     3    2
     3     2     4   am
     4     4     5    1
     5     4    27    1
     6     5     6    1
     7     6     7    1
     8     7     8   ar
     9     7    27   ar
    10     8     9   ar
    11     9    10   ar
    12    10    11    1
    13    10    26   ar
    14    11    12    1
    15    12    13    2
    16    12    14    2
    17    12    15    1
    18    15    16   ar
    19    15    24   ar
    20    16    17    1
    21    16    18   ar
    22    18    19    1
    23    18    20   ar
    24    20    21    1
    25    20    22   ar
    26    22    23    1
    27    22    24   ar
    28    24    25    1
    29    26    27   ar
    30     1    28    1
    31     1    29    1
    32     5    30    1
    33     5    31    1
    34     6    32    1
    35     6    33    1
    36     8    34    1
    37     9    35    1
    38    11    36    1
    39    26    37    1
@<TRIPOS>MOLECULE
../data/bude_mols_rdkit_confs2/molecule_93.pdb
 37 39 0 0 0
SMALL
GASTEIGER

@<TRIPOS>ATOM
      1  N1        -4.2500    2.1180   -0.0080 N.am    1  UNL1       -0.3129
      2  C1        -4.7120    0.7920   -0.1160 C.2     1  UNL1        0.3039
      3  O1        -5.9590    0.6350   -0.3060 O.2     1  UNL1       -0.2525
      4  N2        -3.8330   -0.3160   -0.0160 N.am    1  UNL1       -0.2551
      5  C2        -4.1510   -1.7260   -0.1030 C.3     1  UNL1        0.0253
      6  C3        -3.0450   -2.3990    0.6830 C.3     1  UNL1       -0.0096
      7  C4        -1.9520   -1.4050    0.6090 C.ar    1  UNL1       -0.0243
      8  C5        -0.6000   -1.5140    0.8770 C.ar    1  UNL1       -0.0550
      9  C6         0.2810   -0.4380    0.7420 C.ar    1  UNL1       -0.0390
     10  C7        -0.1800    0.7900    0.3290 C.ar    1  UNL1        0.0498
     11  N3         0.6620    1.9020    0.2070 N.pl3   1  UNL1       -0.2160
     12  S1         2.0940    1.9150   -0.7130 S.O2    1  UNL1        0.0780
     13  O2         1.8000    1.6230   -2.1830 O.2     1  UNL1       -0.1498
     14  O3         2.6850    3.3260   -0.7280 O.2     1  UNL1       -0.1498
     15  C8         3.2980    0.7790   -0.1870 C.ar    1  UNL1        0.1843
     16  C9         4.1560    1.1300    0.8330 C.ar    1  UNL1        0.1907
     17  F1         3.9950    2.3450    1.4050 F       1  UNL1       -0.2002
     18  C10        5.1490    0.2540    1.2510 C.ar    1  UNL1        0.1983
     19  F2         5.9760    0.6190    2.2500 F       1  UNL1       -0.1993
     20  C11        5.2880   -0.9840    0.6450 C.ar    1  UNL1        0.1992
     21  F3         6.2460   -1.8720    1.0220 F       1  UNL1       -0.1993
     22  C12        4.4350   -1.3380   -0.3730 C.ar    1  UNL1        0.1983
     23  F4         4.5420   -2.5390   -0.9870 F       1  UNL1       -0.1993
     24  C13        3.4590   -0.4710   -0.7790 C.ar    1  UNL1        0.1907
     25  F5         2.6150   -0.8070   -1.7780 F       1  UNL1       -0.2002
     26  C14       -1.5530    0.8920    0.0600 C.ar    1  UNL1       -0.0176
     27  C15       -2.4170   -0.1840    0.1980 C.ar    1  UNL1        0.0427
     28 H          -4.8839    2.8677   -0.0816 H       1  UNL1        0.1465
     29 H          -3.2931    2.2953    0.1410 H       1  UNL1        0.1465
     30 H          -4.1484   -2.0546   -1.1213 H       1  UNL1        0.0472
     31 H          -5.1247   -1.9533    0.2780 H       1  UNL1        0.0472
     32 H          -2.7572   -3.3251    0.2309 H       1  UNL1        0.0329
     33 H          -3.3253   -2.6522    1.6841 H       1  UNL1        0.0329
     34 H          -0.2275   -2.4246    1.1885 H       1  UNL1        0.0621
     35 H           1.2830   -0.5655    0.9534 H       1  UNL1        0.0637
     36 H           0.4104    2.7266    0.6823 H       1  UNL1        0.1737
     37 H          -1.9334    1.7994   -0.2514 H       1  UNL1        0.0655
@<TRIPOS>BOND
     1     1     2   am
     2     2     3    2
     3     2     4   am
     4     4     5    1
     5     4    27    1
     6     5     6    1
     7     6     7    1
     8     7     8   ar
     9     7    27   ar
    10     8     9   ar
    11     9    10   ar
    12    10    11    1
    13    10    26   ar
    14    11    12    1
    15    12    13    2
    16    12    14    2
    17    12    15    1
    18    15    16   ar
    19    15    24   ar
    20    16    17    1
    21    16    18   ar
    22    18    19    1
    23    18    20   ar
    24    20    21    1
    25    20    22   ar
    26    22    23    1
    27    22    24   ar
    28    24    25    1
    29    26    27   ar
    30     1    28    1
    31     1    29    1
    32     5    30    1
    33     5    31    1
    34     6    32    1
    35     6    33    1
    36     8    34    1
    37     9    35    1
    38    11    36    1
    39    26    37    1
@<TRIPOS>MOLECULE
../data/bude_mols_rdkit_confs2/molecule_93.pdb
 37 39 0 0 0
SMALL
GASTEIGER

@<TRIPOS>ATOM
      1  N1        -2.9550    1.3640   -2.1500 N.am    1  UNL1       -0.3129
      2  C1        -3.4690    1.5610   -0.8530 C.2     1  UNL1        0.3039
      3  O1        -4.3560    2.4270   -0.6480 O.2     1  UNL1       -0.2525
      4  N2        -3.0010    0.7930    0.2360 N.am    1  UNL1       -0.2551
      5  C2        -3.4370    0.8830    1.6340 C.3     1  UNL1        0.0253
      6  C3        -3.3040   -0.5470    2.0970 C.3     1  UNL1       -0.0096
      7  C4        -2.1490   -1.0490    1.3200 C.ar    1  UNL1       -0.0243
      8  C5        -1.2650   -2.1080    1.4870 C.ar    1  UNL1       -0.0550
      9  C6        -0.2850   -2.3020    0.5500 C.ar    1  UNL1       -0.0390
     10  C7        -0.1100   -1.5030   -0.5700 C.ar    1  UNL1        0.0498
     11  N3         0.9220   -1.7540   -1.5030 N.pl3   1  UNL1       -0.2160
     12  S1         1.9550   -0.5790   -2.1670 S.O2    1  UNL1        0.0780
     13  O2         2.9330   -1.1890   -3.1270 O.2     1  UNL1       -0.1498
     14  O3         1.2230    0.5000   -2.9120 O.2     1  UNL1       -0.1498
     15  C8         2.8740    0.1600   -0.8490 C.ar    1  UNL1        0.1843
     16  C9         4.0690   -0.3970   -0.4700 C.ar    1  UNL1        0.1907
     17  F1         4.4900   -1.5100   -1.1390 F       1  UNL1       -0.2002
     18  C10        4.7920    0.1660    0.5470 C.ar    1  UNL1        0.1983
     19  F2         5.9770   -0.4220    0.8910 F       1  UNL1       -0.1993
     20  C11        4.3670    1.2890    1.2210 C.ar    1  UNL1        0.1992
     21  F3         5.1020    1.8410    2.2370 F       1  UNL1       -0.1993
     22  C12        3.1630    1.8240    0.8170 C.ar    1  UNL1        0.1983
     23  F4         2.6980    2.9480    1.4630 F       1  UNL1       -0.1993
     24  C13        2.4200    1.2780   -0.2000 C.ar    1  UNL1        0.1907
     25  F5         1.2260    1.8320   -0.5840 F       1  UNL1       -0.2002
     26  C14       -0.9890   -0.4570   -0.7270 C.ar    1  UNL1       -0.0176
     27  C15       -1.9980   -0.2430    0.2200 C.ar    1  UNL1        0.0427
     28 H          -3.2903    1.9064   -2.9000 H       1  UNL1        0.1465
     29 H          -2.2605    0.6839   -2.3062 H       1  UNL1        0.1465
     30 H          -4.4495    1.2218    1.7044 H       1  UNL1        0.0472
     31 H          -2.8725    1.5797    2.2179 H       1  UNL1        0.0472
     32 H          -4.1885   -1.1062    1.8739 H       1  UNL1        0.0329
     33 H          -3.1675   -0.6342    3.1547 H       1  UNL1        0.0329
     34 H          -1.3453   -2.7365    2.3016 H       1  UNL1        0.0621
     35 H           0.3642   -3.0926    0.6860 H       1  UNL1        0.0637
     36 H           1.0531   -2.6860   -1.7919 H       1  UNL1        0.1737
     37 H          -0.9050    0.1699   -1.5424 H       1  UNL1        0.0655
@<TRIPOS>BOND
     1     1     2   am
     2     2     3    2
     3     2     4   am
     4     4     5    1
     5     4    27    1
     6     5     6    1
     7     6     7    1
     8     7     8   ar
     9     7    27   ar
    10     8     9   ar
    11     9    10   ar
    12    10    11    1
    13    10    26   ar
    14    11    12    1
    15    12    13    2
    16    12    14    2
    17    12    15    1
    18    15    16   ar
    19    15    24   ar
    20    16    17    1
    21    16    18   ar
    22    18    19    1
    23    18    20   ar
    24    20    21    1
    25    20    22   ar
    26    22    23    1
    27    22    24   ar
    28    24    25    1
    29    26    27   ar
    30     1    28    1
    31     1    29    1
    32     5    30    1
    33     5    31    1
    34     6    32    1
    35     6    33    1
    36     8    34    1
    37     9    35    1
    38    11    36    1
    39    26    37    1
@<TRIPOS>MOLECULE
../data/bude_mols_rdkit_confs2/molecule_93.pdb
 37 39 0 0 0
SMALL
GASTEIGER

@<TRIPOS>ATOM
      1  N1        -2.5470    3.1250    0.9000 N.am    1  UNL1       -0.3129
      2  C1        -1.7600    1.9990    0.5430 C.2     1  UNL1        0.3039
      3  O1        -0.5840    2.2410    0.1560 O.2     1  UNL1       -0.2525
      4  N2        -2.3030    0.7090    0.6320 N.am    1  UNL1       -0.2551
      5  C2        -3.6490    0.3730    1.0720 C.3     1  UNL1        0.0253
      6  C3        -3.9580   -0.7940    0.1700 C.3     1  UNL1       -0.0096
      7  C4        -2.6540   -1.4820    0.0480 C.ar    1  UNL1       -0.0243
      8  C5        -2.2540   -2.7670   -0.2690 C.ar    1  UNL1       -0.0550
      9  C6        -0.9220   -3.0570   -0.2970 C.ar    1  UNL1       -0.0390
     10  C7         0.0860   -2.1190   -0.0210 C.ar    1  UNL1        0.0498
     11  N3         1.4410   -2.5030   -0.0910 N.pl3   1  UNL1       -0.2160
     12  S1         2.6750   -1.7250   -0.9500 S.O2    1  UNL1        0.0780
     13  O2         3.9830   -2.5080   -0.8960 O.2     1  UNL1       -0.1498
     14  O3         2.2590   -1.7370   -2.4180 O.2     1  UNL1       -0.1498
     15  C8         2.9730   -0.0930   -0.4330 C.ar    1  UNL1        0.1843
     16  C9         3.8270    0.1780    0.6380 C.ar    1  UNL1        0.1907
     17  F1         4.3980   -0.8590    1.2860 F       1  UNL1       -0.2002
     18  C10        4.1040    1.4570    1.0520 C.ar    1  UNL1        0.1983
     19  F2         4.9350    1.6530    2.0910 F       1  UNL1       -0.1993
     20  C11        3.5500    2.5320    0.4270 C.ar    1  UNL1        0.1992
     21  F3         3.7750    3.8170    0.7770 F       1  UNL1       -0.1993
     22  C12        2.7020    2.2950   -0.6350 C.ar    1  UNL1        0.1983
     23  F4         2.1290    3.3370   -1.2860 F       1  UNL1       -0.1993
     24  C13        2.4250    1.0160   -1.0480 C.ar    1  UNL1        0.1907
     25  F5         1.5900    0.8090   -2.0930 F       1  UNL1       -0.2002
     26  C14       -0.3240   -0.8470    0.2930 C.ar    1  UNL1       -0.0176
     27  C15       -1.6850   -0.5430    0.3240 C.ar    1  UNL1        0.0427
     28 H          -2.1668    4.0310    0.8379 H       1  UNL1        0.1465
     29 H          -3.4731    3.0000    1.2097 H       1  UNL1        0.1465
     30 H          -4.3289    1.1839    0.9137 H       1  UNL1        0.0472
     31 H          -3.7330    0.1595    2.1171 H       1  UNL1        0.0472
     32 H          -4.3059   -0.4592   -0.7849 H       1  UNL1        0.0329
     33 H          -4.7318   -1.4264    0.5525 H       1  UNL1        0.0329
     34 H          -2.9532   -3.4958   -0.4813 H       1  UNL1        0.0621
     35 H          -0.6385   -4.0205   -0.5345 H       1  UNL1        0.0637
     36 H           1.6965   -3.3091    0.4132 H       1  UNL1        0.1737
     37 H           0.3736   -0.1169    0.5058 H       1  UNL1        0.0655
@<TRIPOS>BOND
     1     1     2   am
     2     2     3    2
     3     2     4   am
     4     4     5    1
     5     4    27    1
     6     5     6    1
     7     6     7    1
     8     7     8   ar
     9     7    27   ar
    10     8     9   ar
    11     9    10   ar
    12    10    11    1
    13    10    26   ar
    14    11    12    1
    15    12    13    2
    16    12    14    2
    17    12    15    1
    18    15    16   ar
    19    15    24   ar
    20    16    17    1
    21    16    18   ar
    22    18    19    1
    23    18    20   ar
    24    20    21    1
    25    20    22   ar
    26    22    23    1
    27    22    24   ar
    28    24    25    1
    29    26    27   ar
    30     1    28    1
    31     1    29    1
    32     5    30    1
    33     5    31    1
    34     6    32    1
    35     6    33    1
    36     8    34    1
    37     9    35    1
    38    11    36    1
    39    26    37    1
@<TRIPOS>MOLECULE
../data/bude_mols_rdkit_confs2/molecule_93.pdb
 37 39 0 0 0
SMALL
GASTEIGER

@<TRIPOS>ATOM
      1  N1        -4.5440    2.8050    0.0000 N.am    1  UNL1       -0.3129
      2  C1        -3.5420    1.9240   -0.4830 C.2     1  UNL1        0.3039
      3  O1        -3.1120    2.0390   -1.6490 O.2     1  UNL1       -0.2525
      4  N2        -3.0120    0.9030    0.3400 N.am    1  UNL1       -0.2551
      5  C2        -3.4120    0.6520    1.7040 C.3     1  UNL1        0.0253
      6  C3        -3.2060   -0.8330    1.8520 C.3     1  UNL1       -0.0096
      7  C4        -2.0950   -1.1200    0.9220 C.ar    1  UNL1       -0.0243
      8  C5        -1.1910   -2.1600    0.7730 C.ar    1  UNL1       -0.0550
      9  C6        -0.2420   -2.1440   -0.2230 C.ar    1  UNL1       -0.0390
     10  C7        -0.1350   -1.1060   -1.1210 C.ar    1  UNL1        0.0498
     11  N3         0.8180   -1.0380   -2.1710 N.pl3   1  UNL1       -0.2160
     12  S1         2.4400   -1.4040   -1.8610 S.O2    1  UNL1        0.0780
     13  O2         3.2260   -1.3660   -3.1540 O.2     1  UNL1       -0.1498
     14  O3         2.5220   -2.8390   -1.3610 O.2     1  UNL1       -0.1498
     15  C8         3.2460   -0.4090   -0.7270 C.ar    1  UNL1        0.1843
     16  C9         3.2620   -0.7540    0.6040 C.ar    1  UNL1        0.1907
     17  F1         2.6560   -1.8830    1.0600 F       1  UNL1       -0.2002
     18  C10        3.8900    0.0090    1.5680 C.ar    1  UNL1        0.1983
     19  F2         3.8920   -0.3540    2.8840 F       1  UNL1       -0.1993
     20  C11        4.5360    1.1700    1.2080 C.ar    1  UNL1        0.1992
     21  F3         5.1600    1.9320    2.1490 F       1  UNL1       -0.1993
     22  C12        4.5310    1.5320   -0.1200 C.ar    1  UNL1        0.1983
     23  F4         5.1630    2.6780   -0.5150 F       1  UNL1       -0.1993
     24  C13        3.9090    0.7730   -1.0600 C.ar    1  UNL1        0.1907
     25  F5         3.8840    1.0980   -2.3780 F       1  UNL1       -0.2002
     26  C14       -1.0620   -0.0700   -0.9460 C.ar    1  UNL1       -0.0176
     27  C15       -2.0140   -0.0660    0.0380 C.ar    1  UNL1        0.0427
     28 H          -4.9028    3.5107   -0.5853 H       1  UNL1        0.1465
     29 H          -4.8804    2.7106    0.9204 H       1  UNL1        0.1465
     30 H          -4.4377    0.9149    1.8582 H       1  UNL1        0.0472
     31 H          -2.8590    1.2267    2.4173 H       1  UNL1        0.0472
     32 H          -4.0875   -1.3713    1.5728 H       1  UNL1        0.0329
     33 H          -2.9938   -1.1265    2.8588 H       1  UNL1        0.0329
     34 H          -1.2305   -2.9617    1.4216 H       1  UNL1        0.0621
     35 H           0.4127   -2.9381   -0.2996 H       1  UNL1        0.0637
     36 H           0.5354   -0.7784   -3.0776 H       1  UNL1        0.1737
     37 H          -1.0252    0.7329   -1.5933 H       1  UNL1        0.0655
@<TRIPOS>BOND
     1     1     2   am
     2     2     3    2
     3     2     4   am
     4     4     5    1
     5     4    27    1
     6     5     6    1
     7     6     7    1
     8     7     8   ar
     9     7    27   ar
    10     8     9   ar
    11     9    10   ar
    12    10    11    1
    13    10    26   ar
    14    11    12    1
    15    12    13    2
    16    12    14    2
    17    12    15    1
    18    15    16   ar
    19    15    24   ar
    20    16    17    1
    21    16    18   ar
    22    18    19    1
    23    18    20   ar
    24    20    21    1
    25    20    22   ar
    26    22    23    1
    27    22    24   ar
    28    24    25    1
    29    26    27   ar
    30     1    28    1
    31     1    29    1
    32     5    30    1
    33     5    31    1
    34     6    32    1
    35     6    33    1
    36     8    34    1
    37     9    35    1
    38    11    36    1
    39    26    37    1
@<TRIPOS>MOLECULE
../data/bude_mols_rdkit_confs2/molecule_93.pdb
 37 39 0 0 0
SMALL
GASTEIGER

@<TRIPOS>ATOM
      1  N1        -3.3770   -2.7070    1.2880 N.am    1  UNL1       -0.3129
      2  C1        -4.3980   -1.7630    0.9450 C.2     1  UNL1        0.3039
      3  O1        -5.5940   -2.0970    1.1120 O.2     1  UNL1       -0.2525
      4  N2        -4.0020   -0.5050    0.4370 N.am    1  UNL1       -0.2551
      5  C2        -4.8550    0.5870    0.0290 C.3     1  UNL1        0.0253
      6  C3        -4.0380    1.7760    0.4710 C.3     1  UNL1       -0.0096
      7  C4        -2.6450    1.3320    0.2240 C.ar    1  UNL1       -0.0243
      8  C5        -1.4670    2.0260    0.0290 C.ar    1  UNL1       -0.0550
      9  C6        -0.2630    1.3440   -0.1810 C.ar    1  UNL1       -0.0390
     10  C7        -0.2490   -0.0310   -0.1950 C.ar    1  UNL1        0.0498
     11  N3         0.8960   -0.8110   -0.3940 N.pl3   1  UNL1       -0.2160
     12  S1         2.0930   -0.5630   -1.6000 S.O2    1  UNL1        0.0780
     13  O2         2.3380   -1.8090   -2.4040 O.2     1  UNL1       -0.1498
     14  O3         1.6570    0.5460   -2.5120 O.2     1  UNL1       -0.1498
     15  C8         3.5940   -0.1550   -0.7940 C.ar    1  UNL1        0.1843
     16  C9         3.9210    1.1530   -0.6160 C.ar    1  UNL1        0.1907
     17  F1         3.1770    2.2000   -1.0410 F       1  UNL1       -0.2002
     18  C10        5.1100    1.4560    0.0380 C.ar    1  UNL1        0.1983
     19  F2         5.4360    2.7620    0.2160 F       1  UNL1       -0.1993
     20  C11        5.9250    0.4520    0.4880 C.ar    1  UNL1        0.1992
     21  F3         7.0760    0.7530    1.1210 F       1  UNL1       -0.1993
     22  C12        5.5800   -0.8650    0.3000 C.ar    1  UNL1        0.1983
     23  F4         6.3820   -1.8690    0.7420 F       1  UNL1       -0.1993
     24  C13        4.4170   -1.1690   -0.3400 C.ar    1  UNL1        0.1907
     25  F5         4.0250   -2.4430   -0.5550 F       1  UNL1       -0.2002
     26  C14       -1.4650   -0.7020    0.0070 C.ar    1  UNL1       -0.0176
     27  C15       -2.6570   -0.0440    0.2150 C.ar    1  UNL1        0.0427
     28 H          -3.6236   -3.5911    1.6441 H       1  UNL1        0.1465
     29 H          -2.4286   -2.4718    1.1677 H       1  UNL1        0.1465
     30 H          -5.8009    0.5536    0.5280 H       1  UNL1        0.0472
     31 H          -5.1028    0.5862   -1.0119 H       1  UNL1        0.0472
     32 H          -4.1963    1.9877    1.5078 H       1  UNL1        0.0329
     33 H          -4.2915    2.6781   -0.0456 H       1  UNL1        0.0329
     34 H          -1.4746    3.0579    0.0382 H       1  UNL1        0.0621
     35 H           0.6121    1.8717   -0.3250 H       1  UNL1        0.0637
     36 H           1.0275   -1.5735    0.2147 H       1  UNL1        0.1737
     37 H          -1.4661   -1.7340   -0.0006 H       1  UNL1        0.0655
@<TRIPOS>BOND
     1     1     2   am
     2     2     3    2
     3     2     4   am
     4     4     5    1
     5     4    27    1
     6     5     6    1
     7     6     7    1
     8     7     8   ar
     9     7    27   ar
    10     8     9   ar
    11     9    10   ar
    12    10    11    1
    13    10    26   ar
    14    11    12    1
    15    12    13    2
    16    12    14    2
    17    12    15    1
    18    15    16   ar
    19    15    24   ar
    20    16    17    1
    21    16    18   ar
    22    18    19    1
    23    18    20   ar
    24    20    21    1
    25    20    22   ar
    26    22    23    1
    27    22    24   ar
    28    24    25    1
    29    26    27   ar
    30     1    28    1
    31     1    29    1
    32     5    30    1
    33     5    31    1
    34     6    32    1
    35     6    33    1
    36     8    34    1
    37     9    35    1
    38    11    36    1
    39    26    37    1
@<TRIPOS>MOLECULE
../data/bude_mols_rdkit_confs2/molecule_93.pdb
 37 39 0 0 0
SMALL
GASTEIGER

@<TRIPOS>ATOM
      1  N1        -5.8950    0.5140    0.9740 N.am    1  UNL1       -0.3129
      2  C1        -4.5000    0.5820    1.1240 C.2     1  UNL1        0.3039
      3  O1        -4.0070    0.8540    2.2380 O.2     1  UNL1       -0.2525
      4  N2        -3.6730    0.3390    0.0020 N.am    1  UNL1       -0.2551
      5  C2        -4.1080    0.0140   -1.3500 C.3     1  UNL1        0.0253
      6  C3        -2.9840    0.4850   -2.2530 C.3     1  UNL1       -0.0096
      7  C4        -1.7910    0.4440   -1.3530 C.ar    1  UNL1       -0.0243
      8  C5        -0.4410    0.4790   -1.6550 C.ar    1  UNL1       -0.0550
      9  C6         0.4320    0.4230   -0.5640 C.ar    1  UNL1       -0.0390
     10  C7         0.0320    0.3370    0.7340 C.ar    1  UNL1        0.0498
     11  N3         0.8750    0.2980    1.8680 N.pl3   1  UNL1       -0.2160
     12  S1         2.1760   -0.7870    2.0770 S.O2    1  UNL1        0.0780
     13  O2         2.7400   -0.6580    3.4910 O.2     1  UNL1       -0.1498
     14  O3         1.6840   -2.2360    2.0230 O.2     1  UNL1       -0.1498
     15  C8         3.4310   -0.6510    0.8980 C.ar    1  UNL1        0.1843
     16  C9         3.4440   -1.4620   -0.2120 C.ar    1  UNL1        0.1907
     17  F1         2.4670   -2.3940   -0.4070 F       1  UNL1       -0.2002
     18  C10        4.4230   -1.3760   -1.1600 C.ar    1  UNL1        0.1983
     19  F2         4.4330   -2.1750   -2.2470 F       1  UNL1       -0.1993
     20  C11        5.4160   -0.4560   -0.9970 C.ar    1  UNL1        0.1992
     21  F3         6.3880   -0.3700   -1.9370 F       1  UNL1       -0.1993
     22  C12        5.4580    0.3850    0.0920 C.ar    1  UNL1        0.1983
     23  F4         6.4700    1.2660    0.1830 F       1  UNL1       -0.1993
     24  C13        4.4610    0.2830    1.0390 C.ar    1  UNL1        0.1907
     25  F5         4.4670    1.0890    2.1200 F       1  UNL1       -0.2002
     26  C14       -1.3500    0.3060    0.9710 C.ar    1  UNL1       -0.0176
     27  C15       -2.2390    0.3590   -0.0580 C.ar    1  UNL1        0.0427
     28 H          -6.4819    0.6809    1.7466 H       1  UNL1        0.1465
     29 H          -6.2858    0.2994    0.0962 H       1  UNL1        0.1465
     30 H          -5.0177    0.5261   -1.5848 H       1  UNL1        0.0472
     31 H          -4.3037   -1.0314   -1.4669 H       1  UNL1        0.0472
     32 H          -3.1652    1.4785   -2.6065 H       1  UNL1        0.0329
     33 H          -2.8700   -0.1140   -3.1323 H       1  UNL1        0.0329
     34 H          -0.0991    0.5426   -2.6267 H       1  UNL1        0.0621
     35 H           1.4457    0.4486   -0.7556 H       1  UNL1        0.0637
     36 H           0.6989    0.9438    2.5899 H       1  UNL1        0.1737
     37 H          -1.6980    0.2420    1.9404 H       1  UNL1        0.0655
@<TRIPOS>BOND
     1     1     2   am
     2     2     3    2
     3     2     4   am
     4     4     5    1
     5     4    27    1
     6     5     6    1
     7     6     7    1
     8     7     8   ar
     9     7    27   ar
    10     8     9   ar
    11     9    10   ar
    12    10    11    1
    13    10    26   ar
    14    11    12    1
    15    12    13    2
    16    12    14    2
    17    12    15    1
    18    15    16   ar
    19    15    24   ar
    20    16    17    1
    21    16    18   ar
    22    18    19    1
    23    18    20   ar
    24    20    21    1
    25    20    22   ar
    26    22    23    1
    27    22    24   ar
    28    24    25    1
    29    26    27   ar
    30     1    28    1
    31     1    29    1
    32     5    30    1
    33     5    31    1
    34     6    32    1
    35     6    33    1
    36     8    34    1
    37     9    35    1
    38    11    36    1
    39    26    37    1
@<TRIPOS>MOLECULE
../data/bude_mols_rdkit_confs2/molecule_93.pdb
 37 39 0 0 0
SMALL
GASTEIGER

@<TRIPOS>ATOM
      1  N1        -3.9330    2.1360   -0.9590 N.am    1  UNL1       -0.3129
      2  C1        -4.5850    0.8960   -0.7360 C.2     1  UNL1        0.3039
      3  O1        -5.8210    0.7820   -0.9200 O.2     1  UNL1       -0.2525
      4  N2        -3.8460   -0.2150   -0.3070 N.am    1  UNL1       -0.2551
      5  C2        -4.2690   -1.5820   -0.0070 C.3     1  UNL1        0.0253
      6  C3        -3.1050   -2.3550   -0.5810 C.3     1  UNL1       -0.0096
      7  C4        -1.9420   -1.5050   -0.2090 C.ar    1  UNL1       -0.0243
      8  C5        -0.6080   -1.7210   -0.0100 C.ar    1  UNL1       -0.0550
      9  C6         0.2280   -0.6860    0.3310 C.ar    1  UNL1       -0.0390
     10  C7        -0.2210    0.6020    0.4860 C.ar    1  UNL1        0.0498
     11  N3         0.6160    1.7000    0.8650 N.pl3   1  UNL1       -0.2160
     12  S1         2.0370    2.1200    0.0610 S.O2    1  UNL1        0.0780
     13  O2         1.7140    2.4060   -1.4060 O.2     1  UNL1       -0.1498
     14  O3         2.6000    3.4390    0.5750 O.2     1  UNL1       -0.1498
     15  C8         3.2630    0.9020    0.0650 C.ar    1  UNL1        0.1843
     16  C9         4.1620    0.7460    1.1210 C.ar    1  UNL1        0.1907
     17  F1         4.0270    1.5800    2.1990 F       1  UNL1       -0.2002
     18  C10        5.1340   -0.2130    1.0590 C.ar    1  UNL1        0.1983
     19  F2         6.0010   -0.3530    2.0950 F       1  UNL1       -0.1993
     20  C11        5.2700   -1.0580   -0.0340 C.ar    1  UNL1        0.1992
     21  F3         6.2510   -1.9940   -0.0480 F       1  UNL1       -0.1993
     22  C12        4.3890   -0.9160   -1.0860 C.ar    1  UNL1        0.1983
     23  F4         4.5030   -1.7320   -2.1660 F       1  UNL1       -0.1993
     24  C13        3.4140    0.0480   -1.0190 C.ar    1  UNL1        0.1907
     25  F5         2.5470    0.1740   -2.0780 F       1  UNL1       -0.2002
     26  C14       -1.5830    0.8180    0.2820 C.ar    1  UNL1       -0.0176
     27  C15       -2.4160   -0.2220   -0.0580 C.ar    1  UNL1        0.0427
     28 H          -4.4508    2.9172   -1.2603 H       1  UNL1        0.1465
     29 H          -2.9627    2.2153   -0.8124 H       1  UNL1        0.1465
     30 H          -5.1881   -1.8286   -0.4962 H       1  UNL1        0.0472
     31 H          -4.4682   -1.7732    1.0268 H       1  UNL1        0.0472
     32 H          -3.1902   -2.4509   -1.6433 H       1  UNL1        0.0329
     33 H          -3.0358   -3.3580   -0.2147 H       1  UNL1        0.0329
     34 H          -0.2239   -2.6728   -0.1171 H       1  UNL1        0.0621
     35 H           1.2304   -0.8838    0.4760 H       1  UNL1        0.0637
     36 H           0.3457    2.2419    1.6412 H       1  UNL1        0.1737
     37 H          -1.9704    1.7687    0.3873 H       1  UNL1        0.0655
@<TRIPOS>BOND
     1     1     2   am
     2     2     3    2
     3     2     4   am
     4     4     5    1
     5     4    27    1
     6     5     6    1
     7     6     7    1
     8     7     8   ar
     9     7    27   ar
    10     8     9   ar
    11     9    10   ar
    12    10    11    1
    13    10    26   ar
    14    11    12    1
    15    12    13    2
    16    12    14    2
    17    12    15    1
    18    15    16   ar
    19    15    24   ar
    20    16    17    1
    21    16    18   ar
    22    18    19    1
    23    18    20   ar
    24    20    21    1
    25    20    22   ar
    26    22    23    1
    27    22    24   ar
    28    24    25    1
    29    26    27   ar
    30     1    28    1
    31     1    29    1
    32     5    30    1
    33     5    31    1
    34     6    32    1
    35     6    33    1
    36     8    34    1
    37     9    35    1
    38    11    36    1
    39    26    37    1
@<TRIPOS>MOLECULE
../data/bude_mols_rdkit_confs2/molecule_93.pdb
 37 39 0 0 0
SMALL
GASTEIGER

@<TRIPOS>ATOM
      1  N1        -5.8290    1.0980   -1.7070 N.am    1  UNL1       -0.3129
      2  C1        -4.4380    0.9880   -1.4740 C.2     1  UNL1        0.3039
      3  O1        -3.6360    1.5580   -2.2450 O.2     1  UNL1       -0.2525
      4  N2        -3.9340    0.2470   -0.3870 N.am    1  UNL1       -0.2551
      5  C2        -4.6320   -0.5060    0.6470 C.3     1  UNL1        0.0253
      6  C3        -3.8080   -0.1370    1.8580 C.3     1  UNL1       -0.0096
      7  C4        -2.4230   -0.1700    1.2930 C.ar    1  UNL1       -0.0243
      8  C5        -1.2070   -0.3820    1.9030 C.ar    1  UNL1       -0.0550
      9  C6        -0.0810   -0.3440    1.0990 C.ar    1  UNL1       -0.0390
     10  C7        -0.1470   -0.1080   -0.2510 C.ar    1  UNL1        0.0498
     11  N3         1.0150   -0.0740   -1.0430 N.pl3   1  UNL1       -0.2160
     12  S1         2.3100   -1.1830   -1.0100 S.O2    1  UNL1        0.0780
     13  O2         1.9330   -2.4040   -0.2150 O.2     1  UNL1       -0.1498
     14  O3         2.5280   -1.6630   -2.4370 O.2     1  UNL1       -0.1498
     15  C8         3.8040   -0.4870   -0.4380 C.ar    1  UNL1        0.1843
     16  C9         4.2270   -0.5070    0.8690 C.ar    1  UNL1        0.1907
     17  F1         3.4480   -1.1180    1.7890 F       1  UNL1       -0.2002
     18  C10        5.4410    0.0860    1.2400 C.ar    1  UNL1        0.1983
     19  F2         5.8060    0.0370    2.5470 F       1  UNL1       -0.1993
     20  C11        6.2570    0.7090    0.3210 C.ar    1  UNL1        0.1992
     21  F3         7.4290    1.2830    0.6750 F       1  UNL1       -0.1993
     22  C12        5.8450    0.7340   -0.9890 C.ar    1  UNL1        0.1983
     23  F4         6.6470    1.3490   -1.9130 F       1  UNL1       -0.1993
     24  C13        4.6510    0.1490   -1.3460 C.ar    1  UNL1        0.1907
     25  F5         4.2730    0.1910   -2.6490 F       1  UNL1       -0.2002
     26  C14       -1.3950    0.1010   -0.8270 C.ar    1  UNL1       -0.0176
     27  C15       -2.5430    0.0710   -0.0560 C.ar    1  UNL1        0.0427
     28 H          -6.1600    1.6209   -2.4727 H       1  UNL1        0.1465
     29 H          -6.4660    0.6517   -1.1035 H       1  UNL1        0.1465
     30 H          -4.6046   -1.5585    0.4561 H       1  UNL1        0.0472
     31 H          -5.6754   -0.2849    0.7328 H       1  UNL1        0.0472
     32 H          -3.9269   -0.8521    2.6451 H       1  UNL1        0.0329
     33 H          -4.0773    0.7985    2.3022 H       1  UNL1        0.0329
     34 H          -1.1380   -0.5617    2.9169 H       1  UNL1        0.0621
     35 H           0.8432   -0.4990    1.5313 H       1  UNL1        0.0637
     36 H           1.0885    0.6691   -1.6846 H       1  UNL1        0.1737
     37 H          -1.4656    0.2805   -1.8408 H       1  UNL1        0.0655
@<TRIPOS>BOND
     1     1     2   am
     2     2     3    2
     3     2     4   am
     4     4     5    1
     5     4    27    1
     6     5     6    1
     7     6     7    1
     8     7     8   ar
     9     7    27   ar
    10     8     9   ar
    11     9    10   ar
    12    10    11    1
    13    10    26   ar
    14    11    12    1
    15    12    13    2
    16    12    14    2
    17    12    15    1
    18    15    16   ar
    19    15    24   ar
    20    16    17    1
    21    16    18   ar
    22    18    19    1
    23    18    20   ar
    24    20    21    1
    25    20    22   ar
    26    22    23    1
    27    22    24   ar
    28    24    25    1
    29    26    27   ar
    30     1    28    1
    31     1    29    1
    32     5    30    1
    33     5    31    1
    34     6    32    1
    35     6    33    1
    36     8    34    1
    37     9    35    1
    38    11    36    1
    39    26    37    1
@<TRIPOS>MOLECULE
../data/bude_mols_rdkit_confs2/molecule_93.pdb
 37 39 0 0 0
SMALL
GASTEIGER

@<TRIPOS>ATOM
      1  N1        -5.6990    2.1980   -0.5330 N.am    1  UNL1       -0.3129
      2  C1        -4.3570    1.7220   -0.6080 C.2     1  UNL1        0.3039
      3  O1        -3.6410    2.2530   -1.5000 O.2     1  UNL1       -0.2525
      4  N2        -3.8590    0.7180    0.2630 N.am    1  UNL1       -0.2551
      5  C2        -4.4960   -0.0120    1.3360 C.3     1  UNL1        0.0253
      6  C3        -3.8660   -1.3760    1.1710 C.3     1  UNL1       -0.0096
      7  C4        -2.4770   -1.0460    0.7590 C.ar    1  UNL1       -0.0243
      8  C5        -1.2750   -1.7320    0.8240 C.ar    1  UNL1       -0.0550
      9  C6        -0.1030   -1.1480    0.3370 C.ar    1  UNL1       -0.0390
     10  C7        -0.1240    0.1050   -0.2090 C.ar    1  UNL1        0.0498
     11  N3         1.0590    0.6880   -0.6950 N.pl3   1  UNL1       -0.2160
     12  S1         2.2430   -0.0390   -1.6780 S.O2    1  UNL1        0.0780
     13  O2         1.7730   -1.3750   -2.1730 O.2     1  UNL1       -0.1498
     14  O3         2.4370    0.8250   -2.9130 O.2     1  UNL1       -0.1498
     15  C8         3.7570   -0.1830   -0.8140 C.ar    1  UNL1        0.1843
     16  C9         4.1290   -1.3070   -0.1170 C.ar    1  UNL1        0.1907
     17  F1         3.2990   -2.3770   -0.1080 F       1  UNL1       -0.2002
     18  C10        5.3380   -1.3920    0.5750 C.ar    1  UNL1        0.1983
     19  F2         5.6650   -2.5130    1.2470 F       1  UNL1       -0.1993
     20  C11        6.2130   -0.3310    0.5790 C.ar    1  UNL1        0.1992
     21  F3         7.4080   -0.3920    1.2520 F       1  UNL1       -0.1993
     22  C12        5.8510    0.8010   -0.1170 C.ar    1  UNL1        0.1983
     23  F4         6.7170    1.8490   -0.1120 F       1  UNL1       -0.1993
     24  C13        4.6630    0.8850   -0.7960 C.ar    1  UNL1        0.1907
     25  F5         4.3140    2.0120   -1.4830 F       1  UNL1       -0.2002
     26  C14       -1.3320    0.7640   -0.2600 C.ar    1  UNL1       -0.0176
     27  C15       -2.5140    0.2190    0.2120 C.ar    1  UNL1        0.0427
     28 H          -6.0092    2.8959   -1.1543 H       1  UNL1        0.1465
     29 H          -6.3154    1.8288    0.1401 H       1  UNL1        0.1465
     30 H          -5.5576   -0.0515    1.2083 H       1  UNL1        0.0472
     31 H          -4.3615    0.4216    2.3049 H       1  UNL1        0.0472
     32 H          -4.3679   -1.9441    0.4158 H       1  UNL1        0.0329
     33 H          -3.9155   -1.9766    2.0552 H       1  UNL1        0.0329
     34 H          -1.2453   -2.6786    1.2340 H       1  UNL1        0.0621
     35 H           0.7871   -1.6675    0.3900 H       1  UNL1        0.0637
     36 H           1.2213    1.6242   -0.4373 H       1  UNL1        0.1737
     37 H          -1.3576    1.7106   -0.6702 H       1  UNL1        0.0655
@<TRIPOS>BOND
     1     1     2   am
     2     2     3    2
     3     2     4   am
     4     4     5    1
     5     4    27    1
     6     5     6    1
     7     6     7    1
     8     7     8   ar
     9     7    27   ar
    10     8     9   ar
    11     9    10   ar
    12    10    11    1
    13    10    26   ar
    14    11    12    1
    15    12    13    2
    16    12    14    2
    17    12    15    1
    18    15    16   ar
    19    15    24   ar
    20    16    17    1
    21    16    18   ar
    22    18    19    1
    23    18    20   ar
    24    20    21    1
    25    20    22   ar
    26    22    23    1
    27    22    24   ar
    28    24    25    1
    29    26    27   ar
    30     1    28    1
    31     1    29    1
    32     5    30    1
    33     5    31    1
    34     6    32    1
    35     6    33    1
    36     8    34    1
    37     9    35    1
    38    11    36    1
    39    26    37    1
@<TRIPOS>MOLECULE
../data/bude_mols_rdkit_confs2/molecule_93.pdb
 37 39 0 0 0
SMALL
GASTEIGER

@<TRIPOS>ATOM
      1  N1        -3.9580    1.3930    2.7560 N.am    1  UNL1       -0.3129
      2  C1        -2.8650    1.2970    1.8490 C.2     1  UNL1        0.3039
      3  O1        -1.8220    1.9250    2.0960 O.2     1  UNL1       -0.2525
      4  N2        -2.9920    0.4940    0.6980 N.am    1  UNL1       -0.2551
      5  C2        -4.1400   -0.2900    0.2840 C.3     1  UNL1        0.0253
      6  C3        -3.4680   -1.4830   -0.3630 C.3     1  UNL1       -0.0096
      7  C4        -2.2270   -0.8740   -0.9600 C.ar    1  UNL1       -0.0243
      8  C5        -1.3730   -1.2550   -1.9630 C.ar    1  UNL1       -0.0550
      9  C6        -0.2890   -0.4590   -2.2900 C.ar    1  UNL1       -0.0390
     10  C7        -0.0050    0.7290   -1.6510 C.ar    1  UNL1        0.0498
     11  N3         1.0960    1.5650   -1.9700 N.pl3   1  UNL1       -0.2160
     12  S1         2.6450    0.8890   -2.1900 S.O2    1  UNL1        0.0780
     13  O2         3.6260    1.9670   -2.6220 O.2     1  UNL1       -0.1498
     14  O3         2.5640   -0.0820   -3.3590 O.2     1  UNL1       -0.1498
     15  C8         3.2640    0.0890   -0.7660 C.ar    1  UNL1        0.1843
     16  C9         3.9980    0.7850    0.1960 C.ar    1  UNL1        0.1907
     17  F1         4.1880    2.1140   -0.0550 F       1  UNL1       -0.2002
     18  C10        4.5010    0.1760    1.3260 C.ar    1  UNL1        0.1983
     19  F2         5.2060    0.9050    2.2240 F       1  UNL1       -0.1993
     20  C11        4.2900   -1.1660    1.5470 C.ar    1  UNL1        0.1992
     21  F3         4.7780   -1.7910    2.6590 F       1  UNL1       -0.1993
     22  C12        3.5690   -1.8760    0.6140 C.ar    1  UNL1        0.1983
     23  F4         3.3670   -3.1990    0.8400 F       1  UNL1       -0.1993
     24  C13        3.0620   -1.2530   -0.5310 C.ar    1  UNL1        0.1907
     25  F5         2.3660   -1.9850   -1.4200 F       1  UNL1       -0.2002
     26  C14       -0.8970    1.0890   -0.6310 C.ar    1  UNL1       -0.0176
     27  C15       -1.9800    0.3040   -0.2970 C.ar    1  UNL1        0.0427
     28 H          -3.8802    1.9511    3.5633 H       1  UNL1        0.1465
     29 H          -4.7917    0.9013    2.5760 H       1  UNL1        0.1465
     30 H          -4.7474    0.2446   -0.4161 H       1  UNL1        0.0472
     31 H          -4.8081   -0.5426    1.0807 H       1  UNL1        0.0472
     32 H          -4.0899   -1.9137   -1.1198 H       1  UNL1        0.0329
     33 H          -3.2652   -2.2809    0.3205 H       1  UNL1        0.0329
     34 H          -1.5387   -2.1359   -2.4744 H       1  UNL1        0.0621
     35 H           0.3371   -0.7700   -3.0491 H       1  UNL1        0.0637
     36 H           0.9652    2.5362   -2.0643 H       1  UNL1        0.1737
     37 H          -0.7381    1.9682   -0.1146 H       1  UNL1        0.0655
@<TRIPOS>BOND
     1     1     2   am
     2     2     3    2
     3     2     4   am
     4     4     5    1
     5     4    27    1
     6     5     6    1
     7     6     7    1
     8     7     8   ar
     9     7    27   ar
    10     8     9   ar
    11     9    10   ar
    12    10    11    1
    13    10    26   ar
    14    11    12    1
    15    12    13    2
    16    12    14    2
    17    12    15    1
    18    15    16   ar
    19    15    24   ar
    20    16    17    1
    21    16    18   ar
    22    18    19    1
    23    18    20   ar
    24    20    21    1
    25    20    22   ar
    26    22    23    1
    27    22    24   ar
    28    24    25    1
    29    26    27   ar
    30     1    28    1
    31     1    29    1
    32     5    30    1
    33     5    31    1
    34     6    32    1
    35     6    33    1
    36     8    34    1
    37     9    35    1
    38    11    36    1
    39    26    37    1
@<TRIPOS>MOLECULE
../data/bude_mols_rdkit_confs2/molecule_93.pdb
 37 39 0 0 0
SMALL
GASTEIGER

@<TRIPOS>ATOM
      1  N1         4.5720   -0.2830   -2.7180 N.am    1  UNL1       -0.3129
      2  C1         3.5320   -0.6530   -1.8350 C.2     1  UNL1        0.3039
      3  O1         3.0480   -1.8210   -2.0010 O.2     1  UNL1       -0.2525
      4  N2         3.0380    0.2030   -0.8180 N.am    1  UNL1       -0.2551
      5  C2         3.5380    1.5420   -0.5700 C.3     1  UNL1        0.0253
      6  C3         3.1580    1.8650    0.8320 C.3     1  UNL1       -0.0096
      7  C4         2.0320    0.9430    1.1340 C.ar    1  UNL1       -0.0243
      8  C5         1.1030    0.9220    2.1790 C.ar    1  UNL1       -0.0550
      9  C6         0.1500   -0.0600    2.2260 C.ar    1  UNL1       -0.0390
     10  C7         0.1390   -1.0080    1.2280 C.ar    1  UNL1        0.0498
     11  N3        -0.8240   -2.0530    1.2230 N.pl3   1  UNL1       -0.2160
     12  S1        -2.4830   -1.8180    1.5180 S.O2    1  UNL1        0.0780
     13  O2        -3.1850   -3.1450    1.5540 O.2     1  UNL1       -0.1498
     14  O3        -2.6410   -1.2260    2.9050 O.2     1  UNL1       -0.1498
     15  C8        -3.2540   -0.7750    0.3640 C.ar    1  UNL1        0.1843
     16  C9        -3.8270   -1.2590   -0.7930 C.ar    1  UNL1        0.1907
     17  F1        -3.7750   -2.5940   -1.0170 F       1  UNL1       -0.2002
     18  C10       -4.4400   -0.4030   -1.7040 C.ar    1  UNL1        0.1983
     19  F2        -4.9990   -0.8810   -2.8350 F       1  UNL1       -0.1993
     20  C11       -4.4890    0.9500   -1.4710 C.ar    1  UNL1        0.1992
     21  F3        -5.0820    1.8010   -2.3480 F       1  UNL1       -0.1993
     22  C12       -3.9230    1.4430   -0.3270 C.ar    1  UNL1        0.1983
     23  F4        -3.9610    2.7680   -0.0790 F       1  UNL1       -0.1993
     24  C13       -3.3160    0.5820    0.5730 C.ar    1  UNL1        0.1907
     25  F5        -2.7760    1.1090    1.6810 F       1  UNL1       -0.2002
     26  C14        1.0450   -1.0010    0.1940 C.ar    1  UNL1       -0.0176
     27  C15        2.0150   -0.0070    0.1400 C.ar    1  UNL1        0.0427
     28 H           4.8797   -0.9141   -3.4081 H       1  UNL1        0.1465
     29 H           4.9887    0.6058   -2.6428 H       1  UNL1        0.1465
     30 H           3.0893    2.2384   -1.2472 H       1  UNL1        0.0472
     31 H           4.5968    1.5993   -0.7136 H       1  UNL1        0.0472
     32 H           2.8442    2.8847    0.9135 H       1  UNL1        0.0329
     33 H           3.9750    1.7463    1.5127 H       1  UNL1        0.0329
     34 H           1.1357    1.6458    2.9139 H       1  UNL1        0.0621
     35 H          -0.5427   -0.0887    2.9905 H       1  UNL1        0.0637
     36 H          -0.5123   -2.9683    1.0376 H       1  UNL1        0.1737
     37 H           1.0052   -1.7285   -0.5368 H       1  UNL1        0.0655
@<TRIPOS>BOND
     1     1     2   am
     2     2     3    2
     3     2     4   am
     4     4     5    1
     5     4    27    1
     6     5     6    1
     7     6     7    1
     8     7     8   ar
     9     7    27   ar
    10     8     9   ar
    11     9    10   ar
    12    10    11    1
    13    10    26   ar
    14    11    12    1
    15    12    13    2
    16    12    14    2
    17    12    15    1
    18    15    16   ar
    19    15    24   ar
    20    16    17    1
    21    16    18   ar
    22    18    19    1
    23    18    20   ar
    24    20    21    1
    25    20    22   ar
    26    22    23    1
    27    22    24   ar
    28    24    25    1
    29    26    27   ar
    30     1    28    1
    31     1    29    1
    32     5    30    1
    33     5    31    1
    34     6    32    1
    35     6    33    1
    36     8    34    1
    37     9    35    1
    38    11    36    1
    39    26    37    1
@<TRIPOS>MOLECULE
../data/bude_mols_rdkit_confs2/molecule_93.pdb
 37 39 0 0 0
SMALL
GASTEIGER

@<TRIPOS>ATOM
      1  N1        -2.6740    3.1040    0.2810 N.am    1  UNL1       -0.3129
      2  C1        -3.3270    2.2230   -0.6400 C.2     1  UNL1        0.3039
      3  O1        -4.1800    2.6740   -1.4490 O.2     1  UNL1       -0.2525
      4  N2        -3.0400    0.8380   -0.6720 N.am    1  UNL1       -0.2551
      5  C2        -3.6520   -0.1150   -1.5670 C.3     1  UNL1        0.0253
      6  C3        -3.3990   -1.4500   -0.9050 C.3     1  UNL1       -0.0096
      7  C4        -2.2940   -1.1920    0.0580 C.ar    1  UNL1       -0.0243
      8  C5        -1.5260   -2.0850    0.7660 C.ar    1  UNL1       -0.0550
      9  C6        -0.5570   -1.5930    1.6010 C.ar    1  UNL1       -0.0390
     10  C7        -0.3040   -0.2500    1.7750 C.ar    1  UNL1        0.0498
     11  N3         0.6980    0.2600    2.6480 N.pl3   1  UNL1       -0.2160
     12  S1         2.2620   -0.4080    2.6280 S.O2    1  UNL1        0.0780
     13  O2         3.1430    0.2140    3.7040 O.2     1  UNL1       -0.1498
     14  O3         2.1670   -1.8770    2.9370 O.2     1  UNL1       -0.1498
     15  C8         3.0810   -0.2490    1.1030 C.ar    1  UNL1        0.1843
     16  C9         2.9890   -1.2310    0.1420 C.ar    1  UNL1        0.1907
     17  F1         2.2690   -2.3490    0.3470 F       1  UNL1       -0.2002
     18  C10        3.6320   -1.1240   -1.0850 C.ar    1  UNL1        0.1983
     19  F2         3.5340   -2.1030   -2.0330 F       1  UNL1       -0.1993
     20  C11        4.3900   -0.0100   -1.3650 C.ar    1  UNL1        0.1992
     21  F3         5.0110    0.0770   -2.5700 F       1  UNL1       -0.1993
     22  C12        4.5050    1.0020   -0.4150 C.ar    1  UNL1        0.1983
     23  F4         5.2520    2.0830   -0.7110 F       1  UNL1       -0.1993
     24  C13        3.8520    0.8620    0.7920 C.ar    1  UNL1        0.1907
     25  F5         3.9420    1.8200    1.7340 F       1  UNL1       -0.2002
     26  C14       -1.1080    0.6250    1.0350 C.ar    1  UNL1       -0.0176
     27  C15       -2.0900    0.1690    0.1880 C.ar    1  UNL1        0.0427
     28 H          -2.8920    4.0641    0.2826 H       1  UNL1        0.1465
     29 H          -2.0071    2.7496    0.9125 H       1  UNL1        0.1465
     30 H          -3.1952   -0.0769   -2.5339 H       1  UNL1        0.0472
     31 H          -4.6928    0.0766   -1.7248 H       1  UNL1        0.0472
     32 H          -3.1050   -2.1805   -1.6294 H       1  UNL1        0.0329
     33 H          -4.2736   -1.8348   -0.4234 H       1  UNL1        0.0329
     34 H          -1.6754   -3.1017    0.6712 H       1  UNL1        0.0621
     35 H           0.0167   -2.2680    2.1304 H       1  UNL1        0.0637
     36 H           0.4858    0.9989    3.2630 H       1  UNL1        0.1737
     37 H          -0.9592    1.6420    1.1280 H       1  UNL1        0.0655
@<TRIPOS>BOND
     1     1     2   am
     2     2     3    2
     3     2     4   am
     4     4     5    1
     5     4    27    1
     6     5     6    1
     7     6     7    1
     8     7     8   ar
     9     7    27   ar
    10     8     9   ar
    11     9    10   ar
    12    10    11    1
    13    10    26   ar
    14    11    12    1
    15    12    13    2
    16    12    14    2
    17    12    15    1
    18    15    16   ar
    19    15    24   ar
    20    16    17    1
    21    16    18   ar
    22    18    19    1
    23    18    20   ar
    24    20    21    1
    25    20    22   ar
    26    22    23    1
    27    22    24   ar
    28    24    25    1
    29    26    27   ar
    30     1    28    1
    31     1    29    1
    32     5    30    1
    33     5    31    1
    34     6    32    1
    35     6    33    1
    36     8    34    1
    37     9    35    1
    38    11    36    1
    39    26    37    1
@<TRIPOS>MOLECULE
../data/bude_mols_rdkit_confs2/molecule_93.pdb
 37 39 0 0 0
SMALL
GASTEIGER

@<TRIPOS>ATOM
      1  N1        -5.6300    2.3210   -0.3730 N.am    1  UNL1       -0.3129
      2  C1        -4.2800    2.0010   -0.1050 C.2     1  UNL1        0.3039
      3  O1        -3.5130    2.8790    0.3360 O.2     1  UNL1       -0.2525
      4  N2        -3.8060    0.6970   -0.3330 N.am    1  UNL1       -0.2551
      5  C2        -4.5810   -0.4080   -0.8380 C.3     1  UNL1        0.0253
      6  C3        -4.0140   -1.5620   -0.0390 C.3     1  UNL1       -0.0096
      7  C4        -2.5690   -1.1480    0.0670 C.ar    1  UNL1       -0.0243
      8  C5        -1.4070   -1.8530    0.2990 C.ar    1  UNL1       -0.0550
      9  C6        -0.1640   -1.2400    0.3540 C.ar    1  UNL1       -0.0390
     10  C7        -0.0790    0.1150    0.1720 C.ar    1  UNL1        0.0498
     11  N3         1.1170    0.8390    0.2040 N.pl3   1  UNL1       -0.2160
     12  S1         2.3840    0.7180    1.3320 S.O2    1  UNL1        0.0780
     13  O2         2.6970    2.1160    1.8450 O.2     1  UNL1       -0.1498
     14  O3         1.9920   -0.0890    2.5340 O.2     1  UNL1       -0.1498
     15  C8         3.8070    0.0940    0.5680 C.ar    1  UNL1        0.1843
     16  C9         4.1130   -1.2470    0.5400 C.ar    1  UNL1        0.1907
     17  F1         3.3170   -2.1500    1.1260 F       1  UNL1       -0.2002
     18  C10        5.2740   -1.7020   -0.0980 C.ar    1  UNL1        0.1983
     19  F2         5.5350   -3.0390   -0.1000 F       1  UNL1       -0.1993
     20  C11        6.1490   -0.8350   -0.7170 C.ar    1  UNL1        0.1992
     21  F3         7.2550   -1.3390   -1.3160 F       1  UNL1       -0.1993
     22  C12        5.8450    0.5090   -0.6900 C.ar    1  UNL1        0.1983
     23  F4         6.6940    1.3750   -1.2940 F       1  UNL1       -0.1993
     24  C13        4.7040    0.9620   -0.0640 C.ar    1  UNL1        0.1907
     25  F5         4.4030    2.2740   -0.0350 F       1  UNL1       -0.2002
     26  C14       -1.2550    0.8370   -0.0640 C.ar    1  UNL1       -0.0176
     27  C15       -2.4880    0.2160   -0.1170 C.ar    1  UNL1        0.0427
     28 H          -5.9605    3.2344   -0.2129 H       1  UNL1        0.1465
     29 H          -6.2401    1.6305   -0.7198 H       1  UNL1        0.1465
     30 H          -4.4272   -0.5462   -1.8878 H       1  UNL1        0.0472
     31 H          -5.6387   -0.2831   -0.7349 H       1  UNL1        0.0472
     32 H          -4.1204   -2.4911   -0.5590 H       1  UNL1        0.0329
     33 H          -4.4970   -1.7301    0.9008 H       1  UNL1        0.0329
     34 H          -1.4642   -2.8742    0.4368 H       1  UNL1        0.0621
     35 H           0.6863   -1.7978    0.5299 H       1  UNL1        0.0637
     36 H           1.2408    1.5001   -0.5149 H       1  UNL1        0.1737
     37 H          -1.1995    1.8583   -0.2018 H       1  UNL1        0.0655
@<TRIPOS>BOND
     1     1     2   am
     2     2     3    2
     3     2     4   am
     4     4     5    1
     5     4    27    1
     6     5     6    1
     7     6     7    1
     8     7     8   ar
     9     7    27   ar
    10     8     9   ar
    11     9    10   ar
    12    10    11    1
    13    10    26   ar
    14    11    12    1
    15    12    13    2
    16    12    14    2
    17    12    15    1
    18    15    16   ar
    19    15    24   ar
    20    16    17    1
    21    16    18   ar
    22    18    19    1
    23    18    20   ar
    24    20    21    1
    25    20    22   ar
    26    22    23    1
    27    22    24   ar
    28    24    25    1
    29    26    27   ar
    30     1    28    1
    31     1    29    1
    32     5    30    1
    33     5    31    1
    34     6    32    1
    35     6    33    1
    36     8    34    1
    37     9    35    1
    38    11    36    1
    39    26    37    1
@<TRIPOS>MOLECULE
../data/bude_mols_rdkit_confs2/molecule_93.pdb
 37 39 0 0 0
SMALL
GASTEIGER

@<TRIPOS>ATOM
      1  N1        -3.8740    2.5460   -0.3890 N.am    1  UNL1       -0.3129
      2  C1        -4.6400    1.3740   -0.6380 C.2     1  UNL1        0.3039
      3  O1        -5.8530    1.4940   -0.9270 O.2     1  UNL1       -0.2525
      4  N2        -4.0500    0.1060   -0.5630 N.am    1  UNL1       -0.2551
      5  C2        -4.7210   -1.1750   -0.7940 C.3     1  UNL1        0.0253
      6  C3        -3.9190   -2.1460    0.0290 C.3     1  UNL1       -0.0096
      7  C4        -2.5700   -1.5340    0.1040 C.ar    1  UNL1       -0.0243
      8  C5        -1.3160   -2.0620    0.4520 C.ar    1  UNL1       -0.0550
      9  C6        -0.2300   -1.2170    0.4240 C.ar    1  UNL1       -0.0390
     10  C7        -0.3300    0.1100    0.0720 C.ar    1  UNL1        0.0498
     11  N3         0.7910    0.9650    0.0470 N.pl3   1  UNL1       -0.2160
     12  S1         2.0100    1.1110    1.2170 S.O2    1  UNL1        0.0780
     13  O2         1.6880    0.3980    2.4970 O.2     1  UNL1       -0.1498
     14  O3         2.1670    2.5890    1.5340 O.2     1  UNL1       -0.1498
     15  C8         3.5790    0.5490    0.6940 C.ar    1  UNL1        0.1843
     16  C9         4.4610    1.4130    0.0350 C.ar    1  UNL1        0.1907
     17  F1         4.0600    2.6890   -0.1880 F       1  UNL1       -0.2002
     18  C10        5.7050    0.9900   -0.3800 C.ar    1  UNL1        0.1983
     19  F2         6.5700    1.8270   -1.0220 F       1  UNL1       -0.1993
     20  C11        6.1320   -0.2940   -0.1660 C.ar    1  UNL1        0.1992
     21  F3         7.3530   -0.7430   -0.5630 F       1  UNL1       -0.1993
     22  C12        5.2850   -1.1690    0.4810 C.ar    1  UNL1        0.1983
     23  F4         5.7120   -2.4430    0.6920 F       1  UNL1       -0.1993
     24  C13        4.0320   -0.7320    0.8960 C.ar    1  UNL1        0.1907
     25  F5         3.2620   -1.6320    1.5240 F       1  UNL1       -0.2002
     26  C14       -1.5630    0.6270   -0.2690 C.ar    1  UNL1       -0.0176
     27  C15       -2.6900   -0.2160   -0.2490 C.ar    1  UNL1        0.0427
     28 H          -4.2985    3.4325   -0.4444 H       1  UNL1        0.1465
     29 H          -2.9192    2.4708   -0.1613 H       1  UNL1        0.1465
     30 H          -4.6943   -1.4391   -1.8305 H       1  UNL1        0.0472
     31 H          -5.7565   -1.1571   -0.5251 H       1  UNL1        0.0472
     32 H          -3.8755   -3.1025   -0.4486 H       1  UNL1        0.0329
     33 H          -4.3465   -2.3142    0.9954 H       1  UNL1        0.0329
     34 H          -1.2121   -3.0530    0.7204 H       1  UNL1        0.0621
     35 H           0.6969   -1.5935    0.6772 H       1  UNL1        0.0637
     36 H           0.8761    1.5460   -0.7432 H       1  UNL1        0.1737
     37 H          -1.6577    1.6195   -0.5354 H       1  UNL1        0.0655
@<TRIPOS>BOND
     1     1     2   am
     2     2     3    2
     3     2     4   am
     4     4     5    1
     5     4    27    1
     6     5     6    1
     7     6     7    1
     8     7     8   ar
     9     7    27   ar
    10     8     9   ar
    11     9    10   ar
    12    10    11    1
    13    10    26   ar
    14    11    12    1
    15    12    13    2
    16    12    14    2
    17    12    15    1
    18    15    16   ar
    19    15    24   ar
    20    16    17    1
    21    16    18   ar
    22    18    19    1
    23    18    20   ar
    24    20    21    1
    25    20    22   ar
    26    22    23    1
    27    22    24   ar
    28    24    25    1
    29    26    27   ar
    30     1    28    1
    31     1    29    1
    32     5    30    1
    33     5    31    1
    34     6    32    1
    35     6    33    1
    36     8    34    1
    37     9    35    1
    38    11    36    1
    39    26    37    1
@<TRIPOS>MOLECULE
../data/bude_mols_rdkit_confs2/molecule_93.pdb
 37 39 0 0 0
SMALL
GASTEIGER

@<TRIPOS>ATOM
      1  N1        -2.2400    2.7110   -0.7090 N.am    1  UNL1       -0.3129
      2  C1        -3.2480    2.1110    0.0920 C.2     1  UNL1        0.3039
      3  O1        -4.2250    2.7700    0.4650 O.2     1  UNL1       -0.2525
      4  N2        -3.1570    0.7270    0.4880 N.am    1  UNL1       -0.2551
      5  C2        -4.1060   -0.0100    1.2980 C.3     1  UNL1        0.0253
      6  C3        -3.1990   -0.9360    2.0800 C.3     1  UNL1       -0.0096
      7  C4        -2.1150   -1.2230    1.1060 C.ar    1  UNL1       -0.0243
      8  C5        -1.1880   -2.2360    0.9870 C.ar    1  UNL1       -0.0550
      9  C6        -0.2840   -2.2290   -0.0530 C.ar    1  UNL1       -0.0390
     10  C7        -0.3030   -1.2110   -0.9780 C.ar    1  UNL1        0.0498
     11  N3         0.6200   -1.1900   -2.0590 N.pl3   1  UNL1       -0.2160
     12  S1         2.3070   -1.4970   -1.8780 S.O2    1  UNL1        0.0780
     13  O2         2.5220   -2.8760   -1.3030 O.2     1  UNL1       -0.1498
     14  O3         2.9820   -1.4220   -3.2180 O.2     1  UNL1       -0.1498
     15  C8         3.0090   -0.2870   -0.8170 C.ar    1  UNL1        0.1843
     16  C9         3.0810   -0.5070    0.5390 C.ar    1  UNL1        0.1907
     17  F1         2.6290   -1.6400    1.0950 F       1  UNL1       -0.2002
     18  C10        3.6460    0.4900    1.3390 C.ar    1  UNL1        0.1983
     19  F2         3.7130    0.2690    2.6720 F       1  UNL1       -0.1993
     20  C11        4.1190    1.6570    0.8040 C.ar    1  UNL1        0.1992
     21  F3         4.6610    2.6040    1.6050 F       1  UNL1       -0.1993
     22  C12        4.0500    1.8780   -0.5420 C.ar    1  UNL1        0.1983
     23  F4         4.5160    3.0250   -1.0620 F       1  UNL1       -0.1993
     24  C13        3.4980    0.9090   -1.3370 C.ar    1  UNL1        0.1907
     25  F5         3.4090    1.0890   -2.6910 F       1  UNL1       -0.2002
     26  C14       -1.2280   -0.1640   -0.8910 C.ar    1  UNL1       -0.0176
     27  C15       -2.1220   -0.2050    0.1690 C.ar    1  UNL1        0.0427
     28 H          -2.3173    3.6570   -0.9706 H       1  UNL1        0.1465
     29 H          -1.4641    2.1809   -1.0026 H       1  UNL1        0.1465
     30 H          -4.7921   -0.5606    0.6889 H       1  UNL1        0.0472
     31 H          -4.7225    0.6114    1.9133 H       1  UNL1        0.0472
     32 H          -3.7118   -1.8315    2.3627 H       1  UNL1        0.0329
     33 H          -2.8468   -0.5131    2.9976 H       1  UNL1        0.0329
     34 H          -1.1709   -3.0018    1.6786 H       1  UNL1        0.0621
     35 H           0.4088   -2.9891   -0.1381 H       1  UNL1        0.0637
     36 H           0.2774   -0.9893   -2.9599 H       1  UNL1        0.1737
     37 H          -1.2441    0.6019   -1.5825 H       1  UNL1        0.0655
@<TRIPOS>BOND
     1     1     2   am
     2     2     3    2
     3     2     4   am
     4     4     5    1
     5     4    27    1
     6     5     6    1
     7     6     7    1
     8     7     8   ar
     9     7    27   ar
    10     8     9   ar
    11     9    10   ar
    12    10    11    1
    13    10    26   ar
    14    11    12    1
    15    12    13    2
    16    12    14    2
    17    12    15    1
    18    15    16   ar
    19    15    24   ar
    20    16    17    1
    21    16    18   ar
    22    18    19    1
    23    18    20   ar
    24    20    21    1
    25    20    22   ar
    26    22    23    1
    27    22    24   ar
    28    24    25    1
    29    26    27   ar
    30     1    28    1
    31     1    29    1
    32     5    30    1
    33     5    31    1
    34     6    32    1
    35     6    33    1
    36     8    34    1
    37     9    35    1
    38    11    36    1
    39    26    37    1
@<TRIPOS>MOLECULE
../data/bude_mols_rdkit_confs2/molecule_93.pdb
 37 39 0 0 0
SMALL
GASTEIGER

@<TRIPOS>ATOM
      1  N1        -2.1580   -2.9650   -0.4270 N.am    1  UNL1       -0.3129
      2  C1        -3.1630   -2.3950    0.3850 C.2     1  UNL1        0.3039
      3  O1        -4.0660   -3.0980    0.8460 O.2     1  UNL1       -0.2525
      4  N2        -3.1300   -1.0060    0.6680 N.am    1  UNL1       -0.2551
      5  C2        -4.0960   -0.2880    1.4850 C.3     1  UNL1        0.0253
      6  C3        -3.3070    0.8700    2.0510 C.3     1  UNL1       -0.0096
      7  C4        -2.2420    1.1050    1.0170 C.ar    1  UNL1       -0.0243
      8  C5        -1.4120    2.1790    0.7750 C.ar    1  UNL1       -0.0550
      9  C6        -0.5150    2.0950   -0.2760 C.ar    1  UNL1       -0.0390
     10  C7        -0.4410    0.9750   -1.0670 C.ar    1  UNL1        0.0498
     11  N3         0.4690    0.8820   -2.1400 N.pl3   1  UNL1       -0.2160
     12  S1         2.1030    1.3440   -2.0310 S.O2    1  UNL1        0.0780
     13  O2         2.1550    2.8300   -1.7330 O.2     1  UNL1       -0.1498
     14  O3         2.7750    1.1740   -3.3710 O.2     1  UNL1       -0.1498
     15  C8         3.0180    0.4470   -0.8700 C.ar    1  UNL1        0.1843
     16  C9         3.0930    0.9110    0.4240 C.ar    1  UNL1        0.1907
     17  F1         2.4780    2.0540    0.8420 F       1  UNL1       -0.2002
     18  C10        3.8100    0.2320    1.3950 C.ar    1  UNL1        0.1983
     19  F2         3.8810    0.6920    2.6700 F       1  UNL1       -0.1993
     20  C11        4.4670   -0.9310    1.0730 C.ar    1  UNL1        0.1992
     21  F3         5.1710   -1.5980    2.0250 F       1  UNL1       -0.1993
     22  C12        4.4100   -1.4200   -0.2150 C.ar    1  UNL1        0.1983
     23  F4         5.0690   -2.5700   -0.5000 F       1  UNL1       -0.1993
     24  C13        3.6880   -0.7230   -1.1630 C.ar    1  UNL1        0.1907
     25  F5         3.6200   -1.1820   -2.4210 F       1  UNL1       -0.2002
     26  C14       -1.2920   -0.1030   -0.8040 C.ar    1  UNL1       -0.0176
     27  C15       -2.1900   -0.0270    0.2420 C.ar    1  UNL1        0.0427
     28 H          -2.1749   -3.9287   -0.6275 H       1  UNL1        0.1465
     29 H          -1.4405   -2.3986   -0.7926 H       1  UNL1        0.1465
     30 H          -4.4700   -0.9127    2.2690 H       1  UNL1        0.0472
     31 H          -4.9517    0.0303    0.9269 H       1  UNL1        0.0472
     32 H          -2.8739    0.6130    2.9951 H       1  UNL1        0.0329
     33 H          -3.9090    1.7354    2.2345 H       1  UNL1        0.0329
     34 H          -1.4584    3.0255    1.3635 H       1  UNL1        0.0621
     35 H           0.1119    2.8917   -0.4693 H       1  UNL1        0.0637
     36 H           0.1411    0.5306   -2.9992 H       1  UNL1        0.1737
     37 H          -1.2490   -0.9519   -1.3893 H       1  UNL1        0.0655
@<TRIPOS>BOND
     1     1     2   am
     2     2     3    2
     3     2     4   am
     4     4     5    1
     5     4    27    1
     6     5     6    1
     7     6     7    1
     8     7     8   ar
     9     7    27   ar
    10     8     9   ar
    11     9    10   ar
    12    10    11    1
    13    10    26   ar
    14    11    12    1
    15    12    13    2
    16    12    14    2
    17    12    15    1
    18    15    16   ar
    19    15    24   ar
    20    16    17    1
    21    16    18   ar
    22    18    19    1
    23    18    20   ar
    24    20    21    1
    25    20    22   ar
    26    22    23    1
    27    22    24   ar
    28    24    25    1
    29    26    27   ar
    30     1    28    1
    31     1    29    1
    32     5    30    1
    33     5    31    1
    34     6    32    1
    35     6    33    1
    36     8    34    1
    37     9    35    1
    38    11    36    1
    39    26    37    1
