@<TRIPOS>MOLECULE
../data/bude_mols_rdkit_confs2/molecule_85.pdb
 43 47 0 0 0
SMALL
GASTEIGER

@<TRIPOS>ATOM
      1  N1        -2.9090   -2.0310    0.3450 N.2     1  UNL1       -0.2917
      2  C1        -3.5570   -0.9200    0.2520 C.2     1  UNL1        0.2504
      3  C2        -5.0060   -0.9380   -0.1550 C.3     1  UNL1        0.0478
      4  C3        -5.5970    0.4260    0.1230 C.3     1  UNL1       -0.0318
      5  C4        -5.0960    0.9650    1.4690 C.3     1  UNL1        0.0484
      6  C5        -3.6510    1.2990    1.2800 C.2     1  UNL1        0.3083
      7  O1        -3.0950    2.3220    1.7110 O.2     1  UNL1       -0.2471
      8  N2        -2.8990    0.3190    0.5330 N.am    1  UNL1       -0.1261
      9  C6        -1.5750    0.5480    0.0870 C.ar    1  UNL1        0.1718
     10  C7        -0.7640    1.5090    0.6600 C.ar    1  UNL1        0.0312
     11  C8         0.2750    2.3780    1.0160 C.ar    1  UNL1       -0.0418
     12  C9         0.5100    1.4710   -0.0520 C.ar    1  UNL1       -0.0068
     13  C10        0.4340    0.5150   -1.0060 C.ar    1  UNL1        0.0055
     14  C11        1.4600    0.0910   -1.9980 C.3     1  UNL1        0.0205
     15  C12        2.5000   -0.6850   -1.2640 C.ar    1  UNL1        0.0737
     16  N3         2.4330   -2.0270   -1.1810 N.ar    1  UNL1       -0.1750
     17  N4         3.3320   -2.6660   -0.4850 N.ar    1  UNL1       -0.2425
     18  C13        4.3360   -2.0690    0.1640 C.ar    1  UNL1        0.2725
     19  O2         5.1660   -2.7480    0.8160 O.2     1  UNL1       -0.2658
     20  C14        4.4610   -0.7000    0.1190 C.ar    1  UNL1        0.0496
     21  C15        5.5080   -0.0580    0.7750 C.ar    1  UNL1       -0.0487
     22  C16        5.5870    1.3050    0.6740 C.ar    1  UNL1       -0.0610
     23  C17        4.6680    2.0210   -0.0510 C.ar    1  UNL1       -0.0611
     24  C18        3.6270    1.3810   -0.7010 C.ar    1  UNL1       -0.0521
     25  C19        3.5050    0.0030   -0.6250 C.ar    1  UNL1        0.0106
     26  C20       -0.8460   -0.0430   -0.9130 C.ar    1  UNL1        0.1730
     27  F1        -1.2900   -1.0240   -1.7170 F       1  UNL1       -0.2009
     28 H          -3.3626   -2.8831    0.1515 H       1  UNL1        0.3006
     29 H          -1.9607   -2.0271    0.6095 H       1  UNL1        0.3006
     30 H          -5.5305   -1.6808    0.4089 H       1  UNL1        0.0386
     31 H          -5.0926   -1.1710   -1.1957 H       1  UNL1        0.0386
     32 H          -6.6639    0.3486    0.1499 H       1  UNL1        0.0276
     33 H          -5.2952    1.0983   -0.6527 H       1  UNL1        0.0276
     34 H          -5.2071    0.2209    2.2298 H       1  UNL1        0.0382
     35 H          -5.6555    1.8244    1.7746 H       1  UNL1        0.0382
     36 H           0.6226    3.1371    1.6226 H       1  UNL1        0.0631
     37 H           1.9018    0.9508   -2.4567 H       1  UNL1        0.0378
     38 H           1.0164   -0.5069   -2.7665 H       1  UNL1        0.0378
     39 H           3.2670   -3.6471   -0.4347 H       1  UNL1        0.1921
     40 H           6.2024   -0.5926    1.3200 H       1  UNL1        0.0625
     41 H           6.3531    1.8040    1.1527 H       1  UNL1        0.0618
     42 H           4.7539    3.0476   -0.1123 H       1  UNL1        0.0618
     43 H           2.9415    1.9304   -1.2424 H       1  UNL1        0.0624
@<TRIPOS>UNITY_ATOM_ATTR
1 1
charge 1
@<TRIPOS>BOND
     1     1     2    2
     2     2     3    1
     3     2     8    1
     4     3     4    1
     5     4     5    1
     6     5     6    1
     7     6     7    2
     8     6     8   am
     9     8     9    1
    10     9    10   ar
    11     9    26   ar
    12    10    11   ar
    13    10    12    1
    14    11    12   ar
    15    12    13   ar
    16    13    14    1
    17    13    26   ar
    18    14    15    1
    19    15    16   ar
    20    15    25   ar
    21    16    17   ar
    22    17    18   ar
    23    18    19    2
    24    18    20   ar
    25    20    21   ar
    26    20    25   ar
    27    21    22   ar
    28    22    23   ar
    29    23    24   ar
    30    24    25   ar
    31    26    27    1
    32     1    28    1
    33     1    29    1
    34     3    30    1
    35     3    31    1
    36     4    32    1
    37     4    33    1
    38     5    34    1
    39     5    35    1
    40    11    36    1
    41    14    37    1
    42    14    38    1
    43    17    39    1
    44    21    40    1
    45    22    41    1
    46    23    42    1
    47    24    43    1
@<TRIPOS>MOLECULE
../data/bude_mols_rdkit_confs2/molecule_85.pdb
 43 47 0 0 0
SMALL
GASTEIGER

@<TRIPOS>ATOM
      1  N1        -3.0360   -1.3690   -1.7400 N.2     1  UNL1       -0.2917
      2  C1        -3.7290   -0.9960   -0.7430 C.2     1  UNL1        0.2504
      3  C2        -5.2080   -1.1460   -0.6540 C.3     1  UNL1        0.0478
      4  C3        -5.9280    0.0670   -0.1850 C.3     1  UNL1       -0.0318
      5  C4        -5.1410    0.9450    0.7590 C.3     1  UNL1        0.0484
      6  C5        -3.9570    0.2750    1.3030 C.2     1  UNL1        0.3083
      7  O1        -3.6820    0.2660    2.5100 O.2     1  UNL1       -0.2471
      8  N2        -3.0810   -0.4040    0.3730 N.am    1  UNL1       -0.1261
      9  C6        -1.6810   -0.4470    0.6110 C.ar    1  UNL1        0.1718
     10  C7        -0.9160   -1.5890    0.5780 C.ar    1  UNL1        0.0312
     11  C8         0.1090   -2.5610    0.6220 C.ar    1  UNL1       -0.0418
     12  C9         0.4650   -1.2030    0.9090 C.ar    1  UNL1       -0.0068
     13  C10        0.4820    0.1410    1.1260 C.ar    1  UNL1        0.0055
     14  C11        1.5860    1.0430    1.5450 C.3     1  UNL1        0.0205
     15  C12        2.6190    1.3410    0.5740 C.ar    1  UNL1        0.0737
     16  N3         2.5710    2.4700   -0.1690 N.ar    1  UNL1       -0.1750
     17  N4         3.4470    2.8320   -1.0590 N.ar    1  UNL1       -0.2425
     18  C13        4.5130    2.0460   -1.2990 C.ar    1  UNL1        0.2725
     19  O2         5.3950    2.3370   -2.1440 O.2     1  UNL1       -0.2658
     20  C14        4.6800    0.8570   -0.6030 C.ar    1  UNL1        0.0496
     21  C15        5.7870    0.0690   -0.8420 C.ar    1  UNL1       -0.0487
     22  C16        5.9080   -1.0860   -0.1040 C.ar    1  UNL1       -0.0610
     23  C17        4.9760   -1.4790    0.8510 C.ar    1  UNL1       -0.0611
     24  C18        3.8840   -0.6360    1.0410 C.ar    1  UNL1       -0.0521
     25  C19        3.7180    0.5180    0.3350 C.ar    1  UNL1        0.0106
     26  C20       -0.8280    0.5640    0.9350 C.ar    1  UNL1        0.1730
     27  F1        -1.2360    1.8600    1.0560 F       1  UNL1       -0.2009
     28 H          -3.4757   -1.7806   -2.5188 H       1  UNL1        0.3006
     29 H          -2.0592   -1.2465   -1.7340 H       1  UNL1        0.3006
     30 H          -5.4218   -1.9442    0.0257 H       1  UNL1        0.0386
     31 H          -5.5529   -1.3366   -1.6488 H       1  UNL1        0.0386
     32 H          -6.8185   -0.2480    0.3177 H       1  UNL1        0.0276
     33 H          -6.1214    0.6581   -1.0557 H       1  UNL1        0.0276
     34 H          -5.7765    1.2293    1.5715 H       1  UNL1        0.0382
     35 H          -4.8036    1.7947    0.2031 H       1  UNL1        0.0382
     36 H           0.3964   -3.5469    0.5200 H       1  UNL1        0.0631
     37 H           2.0628    0.5927    2.3905 H       1  UNL1        0.0378
     38 H           1.1105    1.9834    1.7304 H       1  UNL1        0.0378
     39 H           3.3314    3.6752   -1.5539 H       1  UNL1        0.1921
     40 H           6.4945    0.3347   -1.5447 H       1  UNL1        0.0625
     41 H           6.7292   -1.6894   -0.2667 H       1  UNL1        0.0618
     42 H           5.0882   -2.3511    1.3913 H       1  UNL1        0.0618
     43 H           3.1733   -0.8949    1.7431 H       1  UNL1        0.0624
@<TRIPOS>UNITY_ATOM_ATTR
1 1
charge 1
@<TRIPOS>BOND
     1     1     2    2
     2     2     3    1
     3     2     8    1
     4     3     4    1
     5     4     5    1
     6     5     6    1
     7     6     7    2
     8     6     8   am
     9     8     9    1
    10     9    10   ar
    11     9    26   ar
    12    10    11   ar
    13    10    12    1
    14    11    12   ar
    15    12    13   ar
    16    13    14    1
    17    13    26   ar
    18    14    15    1
    19    15    16   ar
    20    15    25   ar
    21    16    17   ar
    22    17    18   ar
    23    18    19    2
    24    18    20   ar
    25    20    21   ar
    26    20    25   ar
    27    21    22   ar
    28    22    23   ar
    29    23    24   ar
    30    24    25   ar
    31    26    27    1
    32     1    28    1
    33     1    29    1
    34     3    30    1
    35     3    31    1
    36     4    32    1
    37     4    33    1
    38     5    34    1
    39     5    35    1
    40    11    36    1
    41    14    37    1
    42    14    38    1
    43    17    39    1
    44    21    40    1
    45    22    41    1
    46    23    42    1
    47    24    43    1
@<TRIPOS>MOLECULE
../data/bude_mols_rdkit_confs2/molecule_85.pdb
 43 47 0 0 0
SMALL
GASTEIGER

@<TRIPOS>ATOM
      1  N1        -3.7980   -2.3220    0.1540 N.2     1  UNL1       -0.2917
      2  C1        -4.0370   -1.0800    0.0560 C.2     1  UNL1        0.2504
      3  C2        -5.4430   -0.6040    0.1220 C.3     1  UNL1        0.0478
      4  C3        -5.4460    0.8620    0.4800 C.3     1  UNL1       -0.0318
      5  C4        -4.7020    1.5990   -0.6310 C.3     1  UNL1        0.0484
      6  C5        -3.2940    1.1560   -0.6890 C.2     1  UNL1        0.3083
      7  O1        -2.4310    1.8870   -1.2120 O.2     1  UNL1       -0.2471
      8  N2        -2.9820   -0.1330   -0.1180 N.am    1  UNL1       -0.1261
      9  C6        -1.6320   -0.3610    0.2310 C.ar    1  UNL1        0.1718
     10  C7        -0.8990   -1.5050    0.1080 C.ar    1  UNL1        0.0312
     11  C8         0.1020   -2.5110    0.1120 C.ar    1  UNL1       -0.0418
     12  C9         0.4570   -1.2780    0.6060 C.ar    1  UNL1       -0.0068
     13  C10        0.4860    0.0260    1.0170 C.ar    1  UNL1        0.0055
     14  C11        1.6280    0.7870    1.6210 C.3     1  UNL1        0.0205
     15  C12        2.6720    1.1300    0.6370 C.ar    1  UNL1        0.0737
     16  N3         2.6570    2.3350    0.0050 N.ar    1  UNL1       -0.1750
     17  N4         3.5220    2.6850   -0.9090 N.ar    1  UNL1       -0.2425
     18  C13        4.4960    1.8500   -1.2770 C.ar    1  UNL1        0.2725
     19  O2         5.3170    2.1980   -2.1550 O.2     1  UNL1       -0.2658
     20  C14        4.6000    0.6180   -0.7050 C.ar    1  UNL1        0.0496
     21  C15        5.6110   -0.2510   -1.0670 C.ar    1  UNL1       -0.0487
     22  C16        5.7200   -1.4840   -0.4750 C.ar    1  UNL1       -0.0610
     23  C17        4.8090   -1.8480    0.4880 C.ar    1  UNL1       -0.0611
     24  C18        3.7840   -0.9670    0.8530 C.ar    1  UNL1       -0.0521
     25  C19        3.6790    0.2560    0.2630 C.ar    1  UNL1        0.0106
     26  C20       -0.7680    0.5550    0.7860 C.ar    1  UNL1        0.1730
     27  F1        -1.1210    1.8200    1.0630 F       1  UNL1       -0.2009
     28 H          -4.5398   -2.9581    0.2735 H       1  UNL1        0.3006
     29 H          -2.8707   -2.6498    0.1105 H       1  UNL1        0.3006
     30 H          -5.9749   -1.1570    0.8678 H       1  UNL1        0.0386
     31 H          -5.9192   -0.7470   -0.8255 H       1  UNL1        0.0386
     32 H          -4.9495    1.0119    1.4159 H       1  UNL1        0.0276
     33 H          -6.4470    1.2280    0.5748 H       1  UNL1        0.0276
     34 H          -4.7330    2.6511   -0.4385 H       1  UNL1        0.0382
     35 H          -5.1730    1.3827   -1.5671 H       1  UNL1        0.0382
     36 H           0.3727   -3.4832   -0.1038 H       1  UNL1        0.0631
     37 H           2.0679    0.1886    2.3913 H       1  UNL1        0.0378
     38 H           1.2350    1.7047    2.0061 H       1  UNL1        0.0378
     39 H           3.4549    3.5724   -1.3301 H       1  UNL1        0.1921
     40 H           6.2914    0.0301   -1.7902 H       1  UNL1        0.0625
     41 H           6.4765   -2.1301   -0.7493 H       1  UNL1        0.0618
     42 H           4.8808   -2.7718    0.9424 H       1  UNL1        0.0618
     43 H           3.1021   -1.2467    1.5754 H       1  UNL1        0.0624
@<TRIPOS>UNITY_ATOM_ATTR
1 1
charge 1
@<TRIPOS>BOND
     1     1     2    2
     2     2     3    1
     3     2     8    1
     4     3     4    1
     5     4     5    1
     6     5     6    1
     7     6     7    2
     8     6     8   am
     9     8     9    1
    10     9    10   ar
    11     9    26   ar
    12    10    11   ar
    13    10    12    1
    14    11    12   ar
    15    12    13   ar
    16    13    14    1
    17    13    26   ar
    18    14    15    1
    19    15    16   ar
    20    15    25   ar
    21    16    17   ar
    22    17    18   ar
    23    18    19    2
    24    18    20   ar
    25    20    21   ar
    26    20    25   ar
    27    21    22   ar
    28    22    23   ar
    29    23    24   ar
    30    24    25   ar
    31    26    27    1
    32     1    28    1
    33     1    29    1
    34     3    30    1
    35     3    31    1
    36     4    32    1
    37     4    33    1
    38     5    34    1
    39     5    35    1
    40    11    36    1
    41    14    37    1
    42    14    38    1
    43    17    39    1
    44    21    40    1
    45    22    41    1
    46    23    42    1
    47    24    43    1
@<TRIPOS>MOLECULE
../data/bude_mols_rdkit_confs2/molecule_85.pdb
 43 47 0 0 0
SMALL
GASTEIGER

@<TRIPOS>ATOM
      1  N1         4.1370    2.1840   -0.6570 N.2     1  UNL1       -0.2917
      2  C1         4.2520    0.9970   -0.1640 C.2     1  UNL1        0.2504
      3  C2         5.5860    0.3070   -0.0490 C.3     1  UNL1        0.0478
      4  C3         5.7660   -0.2100    1.3610 C.3     1  UNL1       -0.0318
      5  C4         4.6090   -0.9630    1.9050 C.3     1  UNL1        0.0484
      6  C5         3.2950   -0.6260    1.3570 C.2     1  UNL1        0.3083
      7  O1         2.2900   -1.1860    1.8490 O.2     1  UNL1       -0.2471
      8  N2         3.0960    0.3070    0.2900 N.am    1  UNL1       -0.1261
      9  C6         1.8250    0.5530   -0.3140 C.ar    1  UNL1        0.1718
     10  C7         1.4920    0.5520   -1.6360 C.ar    1  UNL1        0.0312
     11  C8         0.9000    0.6110   -2.8860 C.ar    1  UNL1       -0.0418
     12  C9         0.0940    0.8480   -1.7470 C.ar    1  UNL1       -0.0068
     13  C10       -0.3950    1.0250   -0.4750 C.ar    1  UNL1        0.0055
     14  C11       -1.8260    1.3440   -0.1910 C.3     1  UNL1        0.0205
     15  C12       -2.6310    0.1070   -0.3390 C.ar    1  UNL1        0.0737
     16  N3        -2.0610   -1.0540   -0.6990 N.ar    1  UNL1       -0.1750
     17  N4        -2.7330   -2.1810   -0.8410 N.ar    1  UNL1       -0.2425
     18  C13       -4.0490   -2.2030   -0.6240 C.ar    1  UNL1        0.2725
     19  O2        -4.7390   -3.2630   -0.7480 O.2     1  UNL1       -0.2658
     20  C14       -4.6800   -1.0250   -0.2510 C.ar    1  UNL1        0.0496
     21  C15       -6.0560   -1.0400   -0.0220 C.ar    1  UNL1       -0.0487
     22  C16       -6.7170    0.1010    0.3490 C.ar    1  UNL1       -0.0610
     23  C17       -6.0050    1.2650    0.4940 C.ar    1  UNL1       -0.0611
     24  C18       -4.6290    1.3140    0.2720 C.ar    1  UNL1       -0.0521
     25  C19       -3.9830    0.1550   -0.1010 C.ar    1  UNL1        0.0106
     26  C20        0.6440    0.8480    0.3810 C.ar    1  UNL1        0.1730
     27  F1         0.5320    0.9470    1.7350 F       1  UNL1       -0.2009
     28 H           4.9356    2.6654   -0.9727 H       1  UNL1        0.3006
     29 H           3.2506    2.6082   -0.7174 H       1  UNL1        0.3006
     30 H           6.3676    1.0014   -0.2768 H       1  UNL1        0.0386
     31 H           5.6247   -0.5117   -0.7369 H       1  UNL1        0.0386
     32 H           5.9474    0.6279    2.0012 H       1  UNL1        0.0276
     33 H           6.5821   -0.9010    1.3243 H       1  UNL1        0.0276
     34 H           4.5754   -0.7895    2.9603 H       1  UNL1        0.0382
     35 H           4.7787   -1.9823    1.6274 H       1  UNL1        0.0382
     36 H           0.9852    0.5360   -3.9117 H       1  UNL1        0.0631
     37 H          -2.1733    2.0837   -0.8818 H       1  UNL1        0.0378
     38 H          -1.9228    1.7233    0.8048 H       1  UNL1        0.0378
     39 H          -2.2635   -3.0045   -1.1068 H       1  UNL1        0.1921
     40 H          -6.5820   -1.9209   -0.1334 H       1  UNL1        0.0625
     41 H          -7.7351    0.0854    0.5169 H       1  UNL1        0.0618
     42 H          -6.5002    2.1259    0.7744 H       1  UNL1        0.0618
     43 H          -4.1069    2.1971    0.3843 H       1  UNL1        0.0624
@<TRIPOS>UNITY_ATOM_ATTR
1 1
charge 1
@<TRIPOS>BOND
     1     1     2    2
     2     2     3    1
     3     2     8    1
     4     3     4    1
     5     4     5    1
     6     5     6    1
     7     6     7    2
     8     6     8   am
     9     8     9    1
    10     9    10   ar
    11     9    26   ar
    12    10    11   ar
    13    10    12    1
    14    11    12   ar
    15    12    13   ar
    16    13    14    1
    17    13    26   ar
    18    14    15    1
    19    15    16   ar
    20    15    25   ar
    21    16    17   ar
    22    17    18   ar
    23    18    19    2
    24    18    20   ar
    25    20    21   ar
    26    20    25   ar
    27    21    22   ar
    28    22    23   ar
    29    23    24   ar
    30    24    25   ar
    31    26    27    1
    32     1    28    1
    33     1    29    1
    34     3    30    1
    35     3    31    1
    36     4    32    1
    37     4    33    1
    38     5    34    1
    39     5    35    1
    40    11    36    1
    41    14    37    1
    42    14    38    1
    43    17    39    1
    44    21    40    1
    45    22    41    1
    46    23    42    1
    47    24    43    1
@<TRIPOS>MOLECULE
../data/bude_mols_rdkit_confs2/molecule_85.pdb
 43 47 0 0 0
SMALL
GASTEIGER

@<TRIPOS>ATOM
      1  N1        -3.8420    0.3680   -1.6070 N.2     1  UNL1       -0.2917
      2  C1        -3.7380   -0.4080   -0.5830 C.2     1  UNL1        0.2504
      3  C2        -4.6490   -1.5360   -0.3510 C.3     1  UNL1        0.0478
      4  C3        -5.1870   -1.6170    1.0490 C.3     1  UNL1       -0.0318
      5  C4        -4.2700   -1.1370    2.1150 C.3     1  UNL1        0.0484
      6  C5        -2.8920   -0.8320    1.6500 C.2     1  UNL1        0.3083
      7  O1        -1.8580   -1.1100    2.3150 O.2     1  UNL1       -0.2471
      8  N2        -2.7050   -0.1980    0.3960 N.am    1  UNL1       -0.1261
      9  C6        -1.5820    0.6070    0.0770 C.ar    1  UNL1        0.1718
     10  C7        -1.2680    1.8530    0.5690 C.ar    1  UNL1        0.0312
     11  C8        -0.6800    3.1170    0.8830 C.ar    1  UNL1       -0.0418
     12  C9        -0.0610    2.2430   -0.0430 C.ar    1  UNL1       -0.0068
     13  C10        0.3740    1.2400   -0.9150 C.ar    1  UNL1        0.0055
     14  C11        1.6010    1.3920   -1.7150 C.3     1  UNL1        0.0205
     15  C12        2.8340    1.3220   -0.9020 C.ar    1  UNL1        0.0737
     16  N3         3.4460    2.4810   -0.4890 N.ar    1  UNL1       -0.1750
     17  N4         4.5240    2.4890    0.2660 N.ar    1  UNL1       -0.2425
     18  C13        5.1270    1.3770    0.7030 C.ar    1  UNL1        0.2725
     19  O2         6.1690    1.4310    1.4340 O.2     1  UNL1       -0.2658
     20  C14        4.5710    0.1700    0.3290 C.ar    1  UNL1        0.0496
     21  C15        5.1840   -0.9850    0.7600 C.ar    1  UNL1       -0.0487
     22  C16        4.6240   -2.1790    0.3680 C.ar    1  UNL1       -0.0610
     23  C17        3.4960   -2.2230   -0.4240 C.ar    1  UNL1       -0.0611
     24  C18        2.9010   -1.0350   -0.8420 C.ar    1  UNL1       -0.0521
     25  C19        3.4240    0.1640   -0.4740 C.ar    1  UNL1        0.0106
     26  C20       -0.5700    0.2550   -0.8230 C.ar    1  UNL1        0.1730
     27  F1        -0.5370   -0.9140   -1.5400 F       1  UNL1       -0.2009
     28 H          -4.5529    0.2147   -2.2706 H       1  UNL1        0.3006
     29 H          -3.2105    1.1139   -1.7255 H       1  UNL1        0.3006
     30 H          -4.1202   -2.4425   -0.5599 H       1  UNL1        0.0386
     31 H          -5.4906   -1.3881   -0.9950 H       1  UNL1        0.0386
     32 H          -5.4226   -2.6406    1.2530 H       1  UNL1        0.0276
     33 H          -6.0355   -0.9657    1.0760 H       1  UNL1        0.0276
     34 H          -4.2086   -1.8937    2.8690 H       1  UNL1        0.0382
     35 H          -4.6796   -0.2176    2.4780 H       1  UNL1        0.0382
     36 H          -0.6953    4.0089    1.4019 H       1  UNL1        0.0631
     37 H           1.5711    2.3413   -2.2078 H       1  UNL1        0.0378
     38 H           1.6310    0.5805   -2.4118 H       1  UNL1        0.0378
     39 H           4.9070    3.3588    0.5228 H       1  UNL1        0.1921
     40 H           6.0285   -0.9563    1.3525 H       1  UNL1        0.0625
     41 H           5.0588   -3.0634    0.6742 H       1  UNL1        0.0618
     42 H           3.0948   -3.1312   -0.7055 H       1  UNL1        0.0618
     43 H           2.0571   -1.0656   -1.4353 H       1  UNL1        0.0624
@<TRIPOS>UNITY_ATOM_ATTR
1 1
charge 1
@<TRIPOS>BOND
     1     1     2    2
     2     2     3    1
     3     2     8    1
     4     3     4    1
     5     4     5    1
     6     5     6    1
     7     6     7    2
     8     6     8   am
     9     8     9    1
    10     9    10   ar
    11     9    26   ar
    12    10    11   ar
    13    10    12    1
    14    11    12   ar
    15    12    13   ar
    16    13    14    1
    17    13    26   ar
    18    14    15    1
    19    15    16   ar
    20    15    25   ar
    21    16    17   ar
    22    17    18   ar
    23    18    19    2
    24    18    20   ar
    25    20    21   ar
    26    20    25   ar
    27    21    22   ar
    28    22    23   ar
    29    23    24   ar
    30    24    25   ar
    31    26    27    1
    32     1    28    1
    33     1    29    1
    34     3    30    1
    35     3    31    1
    36     4    32    1
    37     4    33    1
    38     5    34    1
    39     5    35    1
    40    11    36    1
    41    14    37    1
    42    14    38    1
    43    17    39    1
    44    21    40    1
    45    22    41    1
    46    23    42    1
    47    24    43    1
@<TRIPOS>MOLECULE
../data/bude_mols_rdkit_confs2/molecule_85.pdb
 43 47 0 0 0
SMALL
GASTEIGER

@<TRIPOS>ATOM
      1  N1         2.8510   -1.3290   -1.6700 N.2     1  UNL1       -0.2917
      2  C1         3.4820   -0.7400   -0.7190 C.2     1  UNL1        0.2504
      3  C2         4.9310   -1.2400   -0.4580 C.3     1  UNL1        0.0478
      4  C3         5.8330   -0.0860   -0.2440 C.3     1  UNL1       -0.0318
      5  C4         5.3620    0.8790    0.8350 C.3     1  UNL1        0.0484
      6  C5         3.9480    1.2200    0.6790 C.2     1  UNL1        0.3083
      7  O1         3.5310    2.3440    0.9730 O.2     1  UNL1       -0.2471
      8  N2         2.9940    0.2460    0.1670 N.am    1  UNL1       -0.1261
      9  C6         1.6390    0.2040    0.6040 C.ar    1  UNL1        0.1718
     10  C7         1.0570   -1.0330    0.9710 C.ar    1  UNL1        0.0312
     11  C8         0.2910   -2.1070    1.3730 C.ar    1  UNL1       -0.0418
     12  C9        -0.2830   -0.8140    1.3610 C.ar    1  UNL1       -0.0068
     13  C10       -0.5090    0.5390    1.2300 C.ar    1  UNL1        0.0055
     14  C11       -1.8070    1.1790    1.5310 C.3     1  UNL1        0.0205
     15  C12       -2.8030    1.2170    0.4870 C.ar    1  UNL1        0.0737
     16  N3        -2.9450    2.4180   -0.1770 N.ar    1  UNL1       -0.1750
     17  N4        -3.7990    2.6100   -1.1320 N.ar    1  UNL1       -0.2425
     18  C13       -4.6480    1.6500   -1.5860 C.ar    1  UNL1        0.2725
     19  O2        -5.4620    1.8680   -2.5200 O.2     1  UNL1       -0.2658
     20  C14       -4.5600    0.3980   -0.9530 C.ar    1  UNL1        0.0496
     21  C15       -5.4080   -0.5770   -1.4110 C.ar    1  UNL1       -0.0487
     22  C16       -5.3060   -1.8270   -0.7790 C.ar    1  UNL1       -0.0610
     23  C17       -4.4090   -2.0230    0.2240 C.ar    1  UNL1       -0.0611
     24  C18       -3.5590   -1.0380    0.6870 C.ar    1  UNL1       -0.0521
     25  C19       -3.6400    0.2320    0.0600 C.ar    1  UNL1        0.0106
     26  C20        0.6460    1.0950    0.7810 C.ar    1  UNL1        0.1730
     27  F1         0.7740    2.4350    0.5380 F       1  UNL1       -0.2009
     28 H           3.3092   -2.0045   -2.2204 H       1  UNL1        0.3006
     29 H           1.9091   -1.1050   -1.8486 H       1  UNL1        0.3006
     30 H           5.2695   -1.8026   -1.3029 H       1  UNL1        0.0386
     31 H           4.9377   -1.8582    0.4153 H       1  UNL1        0.0386
     32 H           5.9136    0.4529   -1.1649 H       1  UNL1        0.0276
     33 H           6.7702   -0.4837    0.0853 H       1  UNL1        0.0276
     34 H           5.9431    1.7755    0.7756 H       1  UNL1        0.0382
     35 H           5.4864    0.4024    1.7849 H       1  UNL1        0.0382
     36 H           0.2015   -3.1193    1.5524 H       1  UNL1        0.0631
     37 H          -1.6046    2.1907    1.8144 H       1  UNL1        0.0378
     38 H          -2.2395    0.5612    2.2900 H       1  UNL1        0.0378
     39 H          -3.8352    3.4997   -1.5520 H       1  UNL1        0.1921
     40 H          -6.0806   -0.4029   -2.1741 H       1  UNL1        0.0625
     41 H          -5.9168   -2.6031   -1.0782 H       1  UNL1        0.0618
     42 H          -4.3609   -2.9562    0.6619 H       1  UNL1        0.0618
     43 H          -2.8940   -1.2179    1.4554 H       1  UNL1        0.0624
@<TRIPOS>UNITY_ATOM_ATTR
1 1
charge 1
@<TRIPOS>BOND
     1     1     2    2
     2     2     3    1
     3     2     8    1
     4     3     4    1
     5     4     5    1
     6     5     6    1
     7     6     7    2
     8     6     8   am
     9     8     9    1
    10     9    10   ar
    11     9    26   ar
    12    10    11   ar
    13    10    12    1
    14    11    12   ar
    15    12    13   ar
    16    13    14    1
    17    13    26   ar
    18    14    15    1
    19    15    16   ar
    20    15    25   ar
    21    16    17   ar
    22    17    18   ar
    23    18    19    2
    24    18    20   ar
    25    20    21   ar
    26    20    25   ar
    27    21    22   ar
    28    22    23   ar
    29    23    24   ar
    30    24    25   ar
    31    26    27    1
    32     1    28    1
    33     1    29    1
    34     3    30    1
    35     3    31    1
    36     4    32    1
    37     4    33    1
    38     5    34    1
    39     5    35    1
    40    11    36    1
    41    14    37    1
    42    14    38    1
    43    17    39    1
    44    21    40    1
    45    22    41    1
    46    23    42    1
    47    24    43    1
@<TRIPOS>MOLECULE
../data/bude_mols_rdkit_confs2/molecule_85.pdb
 43 47 0 0 0
SMALL
GASTEIGER

@<TRIPOS>ATOM
      1  N1        -3.4810    2.3370   -0.6690 N.2     1  UNL1       -0.2917
      2  C1        -3.8390    1.1640   -0.2870 C.2     1  UNL1        0.2504
      3  C2        -5.2390    0.9680    0.1690 C.3     1  UNL1        0.0478
      4  C3        -5.5260   -0.3890    0.7170 C.3     1  UNL1       -0.0318
      5  C4        -4.9290   -1.4350   -0.1620 C.3     1  UNL1        0.0484
      6  C5        -3.4330   -1.2210   -0.1710 C.2     1  UNL1        0.3083
      7  O1        -2.6820   -2.2210   -0.0540 O.2     1  UNL1       -0.2471
      8  N2        -2.9010    0.0850   -0.3090 N.am    1  UNL1       -0.1261
      9  C6        -1.5040    0.2930   -0.4600 C.ar    1  UNL1        0.1718
     10  C7        -0.7150   -0.1350   -1.5280 C.ar    1  UNL1        0.0312
     11  C8         0.2660   -0.4490   -2.4630 C.ar    1  UNL1       -0.0418
     12  C9         0.6070    0.2840   -1.2730 C.ar    1  UNL1       -0.0068
     13  C10        0.6270    0.9490   -0.0830 C.ar    1  UNL1        0.0055
     14  C11        1.7640    1.5730    0.6150 C.3     1  UNL1        0.0205
     15  C12        2.6680    0.6160    1.2850 C.ar    1  UNL1        0.0737
     16  N3         2.4250    0.4210    2.6050 N.ar    1  UNL1       -0.1750
     17  N4         3.1450   -0.4470    3.2620 N.ar    1  UNL1       -0.2425
     18  C13        4.1140   -1.1520    2.6860 C.ar    1  UNL1        0.2725
     19  O2         4.7830   -1.9800    3.3650 O.2     1  UNL1       -0.2658
     20  C14        4.3920   -0.9860    1.3630 C.ar    1  UNL1        0.0496
     21  C15        5.3850   -1.6760    0.7220 C.ar    1  UNL1       -0.0487
     22  C16        5.6340   -1.4610   -0.6210 C.ar    1  UNL1       -0.0610
     23  C17        4.8910   -0.5520   -1.3310 C.ar    1  UNL1       -0.0611
     24  C18        3.8880    0.1460   -0.6860 C.ar    1  UNL1       -0.0521
     25  C19        3.6500   -0.0740    0.6340 C.ar    1  UNL1        0.0106
     26  C20       -0.6780    0.9560    0.4210 C.ar    1  UNL1        0.1730
     27  F1        -1.0530    1.5340    1.6010 F       1  UNL1       -0.2009
     28 H          -4.1282    3.0787   -0.6532 H       1  UNL1        0.3006
     29 H          -2.5594    2.4943   -0.9776 H       1  UNL1        0.3006
     30 H          -5.8887    1.1363   -0.6643 H       1  UNL1        0.0386
     31 H          -5.3982    1.6598    0.9696 H       1  UNL1        0.0386
     32 H          -6.5850   -0.5328    0.7687 H       1  UNL1        0.0276
     33 H          -5.0989   -0.4686    1.6948 H       1  UNL1        0.0276
     34 H          -5.3172   -1.3430   -1.1548 H       1  UNL1        0.0382
     35 H          -5.1677   -2.4130    0.2005 H       1  UNL1        0.0382
     36 H           0.5446   -0.8865   -3.3552 H       1  UNL1        0.0631
     37 H           1.3764    2.2416    1.3550 H       1  UNL1        0.0378
     38 H           2.3457    2.0705   -0.1327 H       1  UNL1        0.0378
     39 H           2.9638   -0.5849    4.2198 H       1  UNL1        0.1921
     40 H           5.9520   -2.3617    1.2448 H       1  UNL1        0.0625
     41 H           6.3848   -1.9886   -1.0932 H       1  UNL1        0.0618
     42 H           5.0787   -0.3918   -2.3331 H       1  UNL1        0.0618
     43 H           3.3203    0.8334   -1.2058 H       1  UNL1        0.0624
@<TRIPOS>UNITY_ATOM_ATTR
1 1
charge 1
@<TRIPOS>BOND
     1     1     2    2
     2     2     3    1
     3     2     8    1
     4     3     4    1
     5     4     5    1
     6     5     6    1
     7     6     7    2
     8     6     8   am
     9     8     9    1
    10     9    10   ar
    11     9    26   ar
    12    10    11   ar
    13    10    12    1
    14    11    12   ar
    15    12    13   ar
    16    13    14    1
    17    13    26   ar
    18    14    15    1
    19    15    16   ar
    20    15    25   ar
    21    16    17   ar
    22    17    18   ar
    23    18    19    2
    24    18    20   ar
    25    20    21   ar
    26    20    25   ar
    27    21    22   ar
    28    22    23   ar
    29    23    24   ar
    30    24    25   ar
    31    26    27    1
    32     1    28    1
    33     1    29    1
    34     3    30    1
    35     3    31    1
    36     4    32    1
    37     4    33    1
    38     5    34    1
    39     5    35    1
    40    11    36    1
    41    14    37    1
    42    14    38    1
    43    17    39    1
    44    21    40    1
    45    22    41    1
    46    23    42    1
    47    24    43    1
@<TRIPOS>MOLECULE
../data/bude_mols_rdkit_confs2/molecule_85.pdb
 43 47 0 0 0
SMALL
GASTEIGER

@<TRIPOS>ATOM
      1  N1        -3.1520    2.1040    0.6980 N.2     1  UNL1       -0.2917
      2  C1        -3.8730    1.1410    0.2660 C.2     1  UNL1        0.2504
      3  C2        -5.3750    1.1820    0.3650 C.3     1  UNL1        0.0478
      4  C3        -5.8690   -0.1750    0.7820 C.3     1  UNL1       -0.0318
      5  C4        -5.4440   -1.1690   -0.3100 C.3     1  UNL1        0.0484
      6  C5        -3.9780   -1.2430   -0.4000 C.2     1  UNL1        0.3083
      7  O1        -3.3620   -2.3190   -0.5750 O.2     1  UNL1       -0.2471
      8  N2        -3.2510    0.0010   -0.2780 N.am    1  UNL1       -0.1261
      9  C6        -1.9040    0.0090   -0.7120 C.ar    1  UNL1        0.1718
     10  C7        -1.4520    0.6100   -1.8840 C.ar    1  UNL1        0.0312
     11  C8        -0.6290    1.0540   -2.9280 C.ar    1  UNL1       -0.0418
     12  C9        -0.0240    0.3240   -1.9250 C.ar    1  UNL1       -0.0068
     13  C10        0.3370   -0.4180   -0.8130 C.ar    1  UNL1        0.0055
     14  C11        1.6790   -0.9540   -0.4730 C.3     1  UNL1        0.0205
     15  C12        2.6220    0.0810   -0.0340 C.ar    1  UNL1        0.0737
     16  N3         2.3070    1.3830    0.0900 N.ar    1  UNL1       -0.1750
     17  N4         3.1810    2.3050    0.4660 N.ar    1  UNL1       -0.2425
     18  C13        4.4460    1.9710    0.7450 C.ar    1  UNL1        0.2725
     19  O2         5.3140    2.8040    1.1050 O.2     1  UNL1       -0.2658
     20  C14        4.8720    0.6530    0.6490 C.ar    1  UNL1        0.0496
     21  C15        6.1770    0.3160    0.9350 C.ar    1  UNL1       -0.0487
     22  C16        6.5690   -0.9970    0.8250 C.ar    1  UNL1       -0.0610
     23  C17        5.6670   -1.9690    0.4330 C.ar    1  UNL1       -0.0611
     24  C18        4.3790   -1.5850    0.1600 C.ar    1  UNL1       -0.0521
     25  C19        3.9280   -0.2880    0.2520 C.ar    1  UNL1        0.0106
     26  C20       -0.8150   -0.5970   -0.0890 C.ar    1  UNL1        0.1730
     27  F1        -0.9650   -1.2580    1.0800 F       1  UNL1       -0.2009
     28 H          -3.5781    2.9051    1.0800 H       1  UNL1        0.3006
     29 H          -2.1705    2.0447    0.6487 H       1  UNL1        0.3006
     30 H          -5.7914    1.4398   -0.5863 H       1  UNL1        0.0386
     31 H          -5.6725    1.9149    1.0856 H       1  UNL1        0.0386
     32 H          -6.9350   -0.1648    0.8736 H       1  UNL1        0.0276
     33 H          -5.4583   -0.4538    1.7299 H       1  UNL1        0.0276
     34 H          -5.8384   -0.8473   -1.2512 H       1  UNL1        0.0382
     35 H          -5.8238   -2.1379   -0.0614 H       1  UNL1        0.0382
     36 H          -0.5388    1.5662   -3.8193 H       1  UNL1        0.0631
     37 H           2.0821   -1.4356   -1.3393 H       1  UNL1        0.0378
     38 H           1.5517   -1.6342    0.3431 H       1  UNL1        0.0378
     39 H           2.8969    3.2446    0.5408 H       1  UNL1        0.1921
     40 H           6.8515    1.0400    1.2280 H       1  UNL1        0.0625
     41 H           7.5444   -1.2594    1.0367 H       1  UNL1        0.0618
     42 H           5.9551   -2.9563    0.3482 H       1  UNL1        0.0618
     43 H           3.7076   -2.3124   -0.1320 H       1  UNL1        0.0624
@<TRIPOS>UNITY_ATOM_ATTR
1 1
charge 1
@<TRIPOS>BOND
     1     1     2    2
     2     2     3    1
     3     2     8    1
     4     3     4    1
     5     4     5    1
     6     5     6    1
     7     6     7    2
     8     6     8   am
     9     8     9    1
    10     9    10   ar
    11     9    26   ar
    12    10    11   ar
    13    10    12    1
    14    11    12   ar
    15    12    13   ar
    16    13    14    1
    17    13    26   ar
    18    14    15    1
    19    15    16   ar
    20    15    25   ar
    21    16    17   ar
    22    17    18   ar
    23    18    19    2
    24    18    20   ar
    25    20    21   ar
    26    20    25   ar
    27    21    22   ar
    28    22    23   ar
    29    23    24   ar
    30    24    25   ar
    31    26    27    1
    32     1    28    1
    33     1    29    1
    34     3    30    1
    35     3    31    1
    36     4    32    1
    37     4    33    1
    38     5    34    1
    39     5    35    1
    40    11    36    1
    41    14    37    1
    42    14    38    1
    43    17    39    1
    44    21    40    1
    45    22    41    1
    46    23    42    1
    47    24    43    1
@<TRIPOS>MOLECULE
../data/bude_mols_rdkit_confs2/molecule_85.pdb
 43 47 0 0 0
SMALL
GASTEIGER

@<TRIPOS>ATOM
      1  N1         3.5970    1.7460    0.5700 N.2     1  UNL1       -0.2917
      2  C1         3.9510    0.6970   -0.0630 C.2     1  UNL1        0.2504
      3  C2         5.1990    0.6840   -0.8570 C.3     1  UNL1        0.0478
      4  C3         5.8650   -0.6700   -0.6180 C.3     1  UNL1       -0.0318
      5  C4         4.9720   -1.7170   -1.2490 C.3     1  UNL1        0.0484
      6  C5         3.6720   -1.6970   -0.5150 C.2     1  UNL1        0.3083
      7  O1         3.0330   -2.7610   -0.3390 O.2     1  UNL1       -0.2471
      8  N2         3.1510   -0.4670   -0.0080 N.am    1  UNL1       -0.1261
      9  C6         1.8520   -0.3750    0.5500 C.ar    1  UNL1        0.1718
     10  C7         1.4180   -1.1570    1.6010 C.ar    1  UNL1        0.0312
     11  C8         0.7090   -1.7930    2.6350 C.ar    1  UNL1       -0.0418
     12  C9         0.0700   -0.7870    1.8850 C.ar    1  UNL1       -0.0068
     13  C10       -0.2940    0.2070    1.0100 C.ar    1  UNL1        0.0055
     14  C11       -1.5840    0.9330    0.8820 C.3     1  UNL1        0.0205
     15  C12       -2.6150    0.1260    0.2210 C.ar    1  UNL1        0.0737
     16  N3        -2.3020   -1.1220   -0.1580 N.ar    1  UNL1       -0.1750
     17  N4        -3.1760   -1.9080   -0.7590 N.ar    1  UNL1       -0.2425
     18  C13       -4.4260   -1.4950   -1.0220 C.ar    1  UNL1        0.2725
     19  O2        -5.2670   -2.2460   -1.5990 O.2     1  UNL1       -0.2658
     20  C14       -4.8410   -0.2250   -0.6680 C.ar    1  UNL1        0.0496
     21  C15       -6.1120    0.2340   -0.9210 C.ar    1  UNL1       -0.0487
     22  C16       -6.4640    1.5050   -0.5470 C.ar    1  UNL1       -0.0610
     23  C17       -5.5080    2.3070    0.0890 C.ar    1  UNL1       -0.0611
     24  C18       -4.2280    1.8450    0.3430 C.ar    1  UNL1       -0.0521
     25  C19       -3.8890    0.5770   -0.0350 C.ar    1  UNL1        0.0106
     26  C20        0.8120    0.4520    0.1930 C.ar    1  UNL1        0.1730
     27  F1         0.8720    1.3550   -0.7990 F       1  UNL1       -0.2009
     28 H           4.1549    2.5562    0.5310 H       1  UNL1        0.3006
     29 H           2.7658    1.7456    1.0976 H       1  UNL1        0.3006
     30 H           5.8464    1.4737   -0.5373 H       1  UNL1        0.0386
     31 H           4.9922    0.8302   -1.8966 H       1  UNL1        0.0386
     32 H           5.9609   -0.8526    0.4319 H       1  UNL1        0.0276
     33 H           6.8456   -0.6951   -1.0454 H       1  UNL1        0.0276
     34 H           5.4248   -2.6828   -1.1645 H       1  UNL1        0.0382
     35 H           4.8223   -1.5091   -2.2879 H       1  UNL1        0.0382
     36 H           0.6787   -2.4915    3.3941 H       1  UNL1        0.0631
     37 H          -1.4229    1.8219    0.3085 H       1  UNL1        0.0378
     38 H          -1.9300    1.1610    1.8685 H       1  UNL1        0.0378
     39 H          -2.9049   -2.8177   -1.0202 H       1  UNL1        0.1921
     40 H          -6.7988   -0.3763   -1.3909 H       1  UNL1        0.0625
     41 H          -7.4142    1.8636   -0.7304 H       1  UNL1        0.0618
     42 H          -5.7639    3.2650    0.3750 H       1  UNL1        0.0618
     43 H          -3.5378    2.4517    0.8126 H       1  UNL1        0.0624
@<TRIPOS>UNITY_ATOM_ATTR
1 1
charge 1
@<TRIPOS>BOND
     1     1     2    2
     2     2     3    1
     3     2     8    1
     4     3     4    1
     5     4     5    1
     6     5     6    1
     7     6     7    2
     8     6     8   am
     9     8     9    1
    10     9    10   ar
    11     9    26   ar
    12    10    11   ar
    13    10    12    1
    14    11    12   ar
    15    12    13   ar
    16    13    14    1
    17    13    26   ar
    18    14    15    1
    19    15    16   ar
    20    15    25   ar
    21    16    17   ar
    22    17    18   ar
    23    18    19    2
    24    18    20   ar
    25    20    21   ar
    26    20    25   ar
    27    21    22   ar
    28    22    23   ar
    29    23    24   ar
    30    24    25   ar
    31    26    27    1
    32     1    28    1
    33     1    29    1
    34     3    30    1
    35     3    31    1
    36     4    32    1
    37     4    33    1
    38     5    34    1
    39     5    35    1
    40    11    36    1
    41    14    37    1
    42    14    38    1
    43    17    39    1
    44    21    40    1
    45    22    41    1
    46    23    42    1
    47    24    43    1
@<TRIPOS>MOLECULE
../data/bude_mols_rdkit_confs2/molecule_85.pdb
 43 47 0 0 0
SMALL
GASTEIGER

@<TRIPOS>ATOM
      1  N1        -2.7770    1.6820   -0.4120 N.2     1  UNL1       -0.2917
      2  C1        -3.4850    0.8390    0.1520 C.2     1  UNL1        0.2504
      3  C2        -4.7830    1.1570    0.8070 C.3     1  UNL1        0.0478
      4  C3        -5.8390    0.4710   -0.0650 C.3     1  UNL1       -0.0318
      5  C4        -5.6380   -1.0090    0.0220 C.3     1  UNL1        0.0484
      6  C5        -4.2410   -1.4200    0.2430 C.2     1  UNL1        0.3083
      7  O1        -4.0240   -2.6470    0.4920 O.2     1  UNL1       -0.2471
      8  N2        -3.1050   -0.5210    0.1960 N.am    1  UNL1       -0.1261
      9  C6        -1.7930   -1.0040    0.1850 C.ar    1  UNL1        0.1718
     10  C7        -1.5260   -2.3360   -0.1720 C.ar    1  UNL1        0.0312
     11  C8        -0.9830   -3.5870   -0.4840 C.ar    1  UNL1       -0.0418
     12  C9        -0.0880   -2.5410   -0.1280 C.ar    1  UNL1       -0.0068
     13  C10        0.4690   -1.3150    0.2580 C.ar    1  UNL1        0.0055
     14  C11        1.9480   -1.2370    0.3210 C.3     1  UNL1        0.0205
     15  C12        2.5490    0.0690    0.4790 C.ar    1  UNL1        0.0737
     16  N3         1.9520    1.1550    0.9380 N.ar    1  UNL1       -0.1750
     17  N4         2.4970    2.3360    1.0430 N.ar    1  UNL1       -0.2425
     18  C13        3.7780    2.5220    0.6660 C.ar    1  UNL1        0.2725
     19  O2         4.3370    3.6410    0.7530 O.2     1  UNL1       -0.2658
     20  C14        4.4990    1.4800    0.1780 C.ar    1  UNL1        0.0496
     21  C15        5.8290    1.6360   -0.2210 C.ar    1  UNL1       -0.0487
     22  C16        6.5640    0.5780   -0.7160 C.ar    1  UNL1       -0.0610
     23  C17        5.9820   -0.6460   -0.8170 C.ar    1  UNL1       -0.0611
     24  C18        4.6520   -0.7950   -0.4170 C.ar    1  UNL1       -0.0521
     25  C19        3.8780    0.2340    0.0810 C.ar    1  UNL1        0.0106
     26  C20       -0.5630   -0.4730    0.4270 C.ar    1  UNL1        0.1730
     27  F1        -0.4290    0.8070    0.8690 F       1  UNL1       -0.2009
     28 H          -3.0572    2.6255   -0.4331 H       1  UNL1        0.3006
     29 H          -1.9332    1.4094   -0.8398 H       1  UNL1        0.3006
     30 H          -4.9437    2.2146    0.8318 H       1  UNL1        0.0386
     31 H          -4.8165    0.8205    1.8222 H       1  UNL1        0.0386
     32 H          -5.7317    0.7907   -1.0805 H       1  UNL1        0.0276
     33 H          -6.8199    0.7285    0.2763 H       1  UNL1        0.0276
     34 H          -5.9751   -1.4472   -0.8941 H       1  UNL1        0.0382
     35 H          -6.1937   -1.3437    0.8729 H       1  UNL1        0.0382
     36 H          -1.1283   -4.5682   -0.7690 H       1  UNL1        0.0631
     37 H           2.3285   -1.6555   -0.5873 H       1  UNL1        0.0378
     38 H           2.2073   -1.7627    1.2162 H       1  UNL1        0.0378
     39 H           1.9732    3.0906    1.3972 H       1  UNL1        0.1921
     40 H           6.2723    2.5647   -0.1437 H       1  UNL1        0.0625
     41 H           7.5448    0.7148   -1.0063 H       1  UNL1        0.0618
     42 H           6.5135   -1.4514   -1.1829 H       1  UNL1        0.0618
     43 H           4.2224   -1.7298   -0.4986 H       1  UNL1        0.0624
@<TRIPOS>UNITY_ATOM_ATTR
1 1
charge 1
@<TRIPOS>BOND
     1     1     2    2
     2     2     3    1
     3     2     8    1
     4     3     4    1
     5     4     5    1
     6     5     6    1
     7     6     7    2
     8     6     8   am
     9     8     9    1
    10     9    10   ar
    11     9    26   ar
    12    10    11   ar
    13    10    12    1
    14    11    12   ar
    15    12    13   ar
    16    13    14    1
    17    13    26   ar
    18    14    15    1
    19    15    16   ar
    20    15    25   ar
    21    16    17   ar
    22    17    18   ar
    23    18    19    2
    24    18    20   ar
    25    20    21   ar
    26    20    25   ar
    27    21    22   ar
    28    22    23   ar
    29    23    24   ar
    30    24    25   ar
    31    26    27    1
    32     1    28    1
    33     1    29    1
    34     3    30    1
    35     3    31    1
    36     4    32    1
    37     4    33    1
    38     5    34    1
    39     5    35    1
    40    11    36    1
    41    14    37    1
    42    14    38    1
    43    17    39    1
    44    21    40    1
    45    22    41    1
    46    23    42    1
    47    24    43    1
@<TRIPOS>MOLECULE
../data/bude_mols_rdkit_confs2/molecule_85.pdb
 43 47 0 0 0
SMALL
GASTEIGER

@<TRIPOS>ATOM
      1  N1        -3.4290   -0.8130    1.9480 N.2     1  UNL1       -0.2917
      2  C1        -3.9690   -0.2630    0.9300 C.2     1  UNL1        0.2504
      3  C2        -5.4310   -0.0460    0.7610 C.3     1  UNL1        0.0478
      4  C3        -5.9790   -0.5470   -0.5410 C.3     1  UNL1       -0.0318
      5  C4        -4.9530   -0.6830   -1.6260 C.3     1  UNL1        0.0484
      6  C5        -3.7550    0.1540   -1.4490 C.2     1  UNL1        0.3083
      7  O1        -3.2310    0.8450   -2.3770 O.2     1  UNL1       -0.2471
      8  N2        -3.1510    0.1870   -0.1500 N.am    1  UNL1       -0.1261
      9  C6        -1.8040    0.6350    0.0250 C.ar    1  UNL1        0.1718
     10  C7        -1.3410    1.3880    1.0680 C.ar    1  UNL1        0.0312
     11  C8        -0.4830    2.1220    1.9100 C.ar    1  UNL1       -0.0418
     12  C9         0.1000    1.5910    0.7770 C.ar    1  UNL1       -0.0068
     13  C10        0.4190    0.9700   -0.3890 C.ar    1  UNL1        0.0055
     14  C11        1.7150    0.8930   -1.0900 C.3     1  UNL1        0.0205
     15  C12        2.5880   -0.0610   -0.4310 C.ar    1  UNL1        0.0737
     16  N3         2.0130   -1.1990    0.0620 N.ar    1  UNL1       -0.1750
     17  N4         2.7170   -2.1140    0.7210 N.ar    1  UNL1       -0.2425
     18  C13        4.0340   -1.9750    0.9390 C.ar    1  UNL1        0.2725
     19  O2         4.7140   -2.8320    1.5610 O.2     1  UNL1       -0.2658
     20  C14        4.6740   -0.8670    0.4750 C.ar    1  UNL1        0.0496
     21  C15        6.0340   -0.7010    0.6500 C.ar    1  UNL1       -0.0487
     22  C16        6.6850    0.4100    0.1510 C.ar    1  UNL1       -0.0610
     23  C17        5.9460    1.3690   -0.5370 C.ar    1  UNL1       -0.0611
     24  C18        4.5770    1.1980   -0.7110 C.ar    1  UNL1       -0.0521
     25  C19        3.9260    0.0940   -0.2160 C.ar    1  UNL1        0.0106
     26  C20       -0.7670    0.3820   -0.8440 C.ar    1  UNL1        0.1730
     27  F1        -0.8600   -0.3350   -2.0000 F       1  UNL1       -0.2009
     28 H          -3.9900   -1.1246    2.6947 H       1  UNL1        0.3006
     29 H          -2.4517   -0.9255    1.9862 H       1  UNL1        0.3006
     30 H          -5.6241    1.0045    0.8245 H       1  UNL1        0.0386
     31 H          -5.9165   -0.6037    1.5344 H       1  UNL1        0.0386
     32 H          -6.7315    0.1369   -0.8741 H       1  UNL1        0.0276
     33 H          -6.3642   -1.5280   -0.3563 H       1  UNL1        0.0276
     34 H          -5.4124   -0.4151   -2.5545 H       1  UNL1        0.0382
     35 H          -4.6182   -1.6989   -1.5993 H       1  UNL1        0.0382
     36 H          -0.3691    2.6740    2.7745 H       1  UNL1        0.0631
     37 H           2.1776    1.8578   -1.0837 H       1  UNL1        0.0378
     38 H           1.5475    0.5735   -2.0974 H       1  UNL1        0.0378
     39 H           2.2589   -2.9172    1.0591 H       1  UNL1        0.1921
     40 H           6.5718   -1.4181    1.1614 H       1  UNL1        0.0625
     41 H           7.7014    0.5275    0.2856 H       1  UNL1        0.0618
     42 H           6.4141    2.2063   -0.9176 H       1  UNL1        0.0618
     43 H           4.0390    1.9150   -1.2224 H       1  UNL1        0.0624
@<TRIPOS>UNITY_ATOM_ATTR
1 1
charge 1
@<TRIPOS>BOND
     1     1     2    2
     2     2     3    1
     3     2     8    1
     4     3     4    1
     5     4     5    1
     6     5     6    1
     7     6     7    2
     8     6     8   am
     9     8     9    1
    10     9    10   ar
    11     9    26   ar
    12    10    11   ar
    13    10    12    1
    14    11    12   ar
    15    12    13   ar
    16    13    14    1
    17    13    26   ar
    18    14    15    1
    19    15    16   ar
    20    15    25   ar
    21    16    17   ar
    22    17    18   ar
    23    18    19    2
    24    18    20   ar
    25    20    21   ar
    26    20    25   ar
    27    21    22   ar
    28    22    23   ar
    29    23    24   ar
    30    24    25   ar
    31    26    27    1
    32     1    28    1
    33     1    29    1
    34     3    30    1
    35     3    31    1
    36     4    32    1
    37     4    33    1
    38     5    34    1
    39     5    35    1
    40    11    36    1
    41    14    37    1
    42    14    38    1
    43    17    39    1
    44    21    40    1
    45    22    41    1
    46    23    42    1
    47    24    43    1
@<TRIPOS>MOLECULE
../data/bude_mols_rdkit_confs2/molecule_85.pdb
 43 47 0 0 0
SMALL
GASTEIGER

@<TRIPOS>ATOM
      1  N1         2.6880    1.8650   -0.6930 N.2     1  UNL1       -0.2917
      2  C1         3.4550    0.8370   -0.6380 C.2     1  UNL1        0.2504
      3  C2         4.8610    1.0010   -1.0840 C.3     1  UNL1        0.0478
      4  C3         5.8320    0.0310   -0.5390 C.3     1  UNL1       -0.0318
      5  C4         5.2910   -1.0880    0.2680 C.3     1  UNL1        0.0484
      6  C5         3.9100   -1.4600   -0.0300 C.2     1  UNL1        0.3083
      7  O1         3.5370   -2.6540   -0.1740 O.2     1  UNL1       -0.2471
      8  N2         2.9400   -0.3970   -0.1620 N.am    1  UNL1       -0.1261
      9  C6         1.5750   -0.6250    0.1720 C.ar    1  UNL1        0.1718
     10  C7         0.7840   -1.5390   -0.5260 C.ar    1  UNL1        0.0312
     11  C8        -0.2310   -2.3700   -1.0290 C.ar    1  UNL1       -0.0418
     12  C9        -0.5350   -1.5300    0.0810 C.ar    1  UNL1       -0.0068
     13  C10       -0.5170   -0.6350    1.1090 C.ar    1  UNL1        0.0055
     14  C11       -1.6260   -0.2750    2.0440 C.3     1  UNL1        0.0205
     15  C12       -2.6200    0.5780    1.3760 C.ar    1  UNL1        0.0737
     16  N3        -2.4800    1.9030    1.5090 N.ar    1  UNL1       -0.1750
     17  N4        -3.2710    2.7620    0.9150 N.ar    1  UNL1       -0.2425
     18  C13       -4.2730    2.3350    0.1360 C.ar    1  UNL1        0.2725
     19  O2        -5.0520    3.1040   -0.4520 O.2     1  UNL1       -0.2658
     20  C14       -4.4480    0.9770   -0.0230 C.ar    1  UNL1        0.0496
     21  C15       -5.4750    0.4650   -0.8030 C.ar    1  UNL1       -0.0487
     22  C16       -5.6430   -0.8960   -0.9370 C.ar    1  UNL1       -0.0610
     23  C17       -4.7930   -1.7760   -0.2960 C.ar    1  UNL1       -0.0611
     24  C18       -3.7540   -1.2990    0.4940 C.ar    1  UNL1       -0.0521
     25  C19       -3.6170    0.0630    0.6020 C.ar    1  UNL1        0.0106
     26  C20        0.7690   -0.1040    1.1390 C.ar    1  UNL1        0.1730
     27  F1         1.1550    0.8320    2.0510 F       1  UNL1       -0.2009
     28 H           3.0389    2.7239   -1.0222 H       1  UNL1        0.3006
     29 H           1.7489    1.7944   -0.4060 H       1  UNL1        0.3006
     30 H           5.1824    1.9809   -0.7988 H       1  UNL1        0.0386
     31 H           4.8491    0.8334   -2.1407 H       1  UNL1        0.0386
     32 H           6.5158    0.5732    0.0801 H       1  UNL1        0.0276
     33 H           6.2688   -0.4343   -1.3979 H       1  UNL1        0.0276
     34 H           5.3429   -0.8075    1.2993 H       1  UNL1        0.0382
     35 H           5.8872   -1.9431    0.0266 H       1  UNL1        0.0382
     36 H          -0.5371   -3.0800   -1.7126 H       1  UNL1        0.0631
     37 H          -1.2201    0.2511    2.8827 H       1  UNL1        0.0378
     38 H          -2.1082   -1.1748    2.3646 H       1  UNL1        0.0378
     39 H          -3.1278    3.7277    1.0422 H       1  UNL1        0.1921
     40 H          -6.1191    1.1097   -1.2873 H       1  UNL1        0.0625
     41 H          -6.4110   -1.2612   -1.5217 H       1  UNL1        0.0618
     42 H          -4.9302   -2.7931   -0.4043 H       1  UNL1        0.0618
     43 H          -3.1107   -1.9430    0.9803 H       1  UNL1        0.0624
@<TRIPOS>UNITY_ATOM_ATTR
1 1
charge 1
@<TRIPOS>BOND
     1     1     2    2
     2     2     3    1
     3     2     8    1
     4     3     4    1
     5     4     5    1
     6     5     6    1
     7     6     7    2
     8     6     8   am
     9     8     9    1
    10     9    10   ar
    11     9    26   ar
    12    10    11   ar
    13    10    12    1
    14    11    12   ar
    15    12    13   ar
    16    13    14    1
    17    13    26   ar
    18    14    15    1
    19    15    16   ar
    20    15    25   ar
    21    16    17   ar
    22    17    18   ar
    23    18    19    2
    24    18    20   ar
    25    20    21   ar
    26    20    25   ar
    27    21    22   ar
    28    22    23   ar
    29    23    24   ar
    30    24    25   ar
    31    26    27    1
    32     1    28    1
    33     1    29    1
    34     3    30    1
    35     3    31    1
    36     4    32    1
    37     4    33    1
    38     5    34    1
    39     5    35    1
    40    11    36    1
    41    14    37    1
    42    14    38    1
    43    17    39    1
    44    21    40    1
    45    22    41    1
    46    23    42    1
    47    24    43    1
@<TRIPOS>MOLECULE
../data/bude_mols_rdkit_confs2/molecule_85.pdb
 43 47 0 0 0
SMALL
GASTEIGER

@<TRIPOS>ATOM
      1  N1        -3.3500    0.6090   -1.9150 N.2     1  UNL1       -0.2917
      2  C1        -3.7330    0.7160   -0.7030 C.2     1  UNL1        0.2504
      3  C2        -4.7690    1.7810   -0.3720 C.3     1  UNL1        0.0478
      4  C3        -5.7300    1.1440    0.6020 C.3     1  UNL1       -0.0318
      5  C4        -4.9950    0.7760    1.8710 C.3     1  UNL1        0.0484
      6  C5        -4.0030   -0.2960    1.4940 C.2     1  UNL1        0.3083
      7  O1        -3.8320   -1.3430    2.1730 O.2     1  UNL1       -0.2471
      8  N2        -3.2270   -0.1120    0.3210 N.am    1  UNL1       -0.1261
      9  C6        -1.9600   -0.7410    0.1950 C.ar    1  UNL1        0.1718
     10  C7        -1.6510   -2.0390    0.6210 C.ar    1  UNL1        0.0312
     11  C8        -0.9890   -3.2310    0.9090 C.ar    1  UNL1       -0.0418
     12  C9        -0.2480   -2.2060    0.3030 C.ar    1  UNL1       -0.0068
     13  C10        0.2360   -1.0590   -0.2820 C.ar    1  UNL1        0.0055
     14  C11        1.6160   -0.7650   -0.7400 C.3     1  UNL1        0.0205
     15  C12        2.5150   -0.2970    0.3300 C.ar    1  UNL1        0.0737
     16  N3         2.0790    0.0280    1.5770 N.ar    1  UNL1       -0.1750
     17  N4         2.8990    0.4800    2.5040 N.ar    1  UNL1       -0.2425
     18  C13        4.2120    0.6310    2.2240 C.ar    1  UNL1        0.2725
     19  O2         5.0040    1.0560    3.0830 O.2     1  UNL1       -0.2658
     20  C14        4.7100    0.3180    0.9820 C.ar    1  UNL1        0.0496
     21  C15        6.0460    0.4500    0.6600 C.ar    1  UNL1       -0.0487
     22  C16        6.4850    0.1160   -0.5850 C.ar    1  UNL1       -0.0610
     23  C17        5.6450   -0.3660   -1.5850 C.ar    1  UNL1       -0.0611
     24  C18        4.3200   -0.4920   -1.2550 C.ar    1  UNL1       -0.0521
     25  C19        3.8470   -0.1540    0.0190 C.ar    1  UNL1        0.0106
     26  C20       -0.8280   -0.1750   -0.3380 C.ar    1  UNL1        0.1730
     27  F1        -0.7030    1.0920   -0.8570 F       1  UNL1       -0.2009
     28 H          -3.7247    1.2040   -2.6040 H       1  UNL1        0.3006
     29 H          -2.6797   -0.0686   -2.1614 H       1  UNL1        0.3006
     30 H          -5.2857    2.0842   -1.2585 H       1  UNL1        0.0386
     31 H          -4.3118    2.6539    0.0452 H       1  UNL1        0.0386
     32 H          -6.1486    0.2620    0.1642 H       1  UNL1        0.0276
     33 H          -6.5134    1.8354    0.8324 H       1  UNL1        0.0276
     34 H          -5.6822    0.4036    2.6018 H       1  UNL1        0.0382
     35 H          -4.5038    1.6268    2.2950 H       1  UNL1        0.0382
     36 H          -1.0212   -4.1878    1.2943 H       1  UNL1        0.0631
     37 H           1.5663   -0.0069   -1.4934 H       1  UNL1        0.0378
     38 H           2.0231   -1.6840   -1.1070 H       1  UNL1        0.0378
     39 H           2.5558    0.7071    3.3984 H       1  UNL1        0.1921
     40 H           6.7132    0.8024    1.3641 H       1  UNL1        0.0625
     41 H           7.4889    0.2255   -0.7975 H       1  UNL1        0.0618
     42 H           5.9995   -0.6145   -2.5218 H       1  UNL1        0.0618
     43 H           3.6559   -0.8442   -1.9621 H       1  UNL1        0.0624
@<TRIPOS>UNITY_ATOM_ATTR
1 1
charge 1
@<TRIPOS>BOND
     1     1     2    2
     2     2     3    1
     3     2     8    1
     4     3     4    1
     5     4     5    1
     6     5     6    1
     7     6     7    2
     8     6     8   am
     9     8     9    1
    10     9    10   ar
    11     9    26   ar
    12    10    11   ar
    13    10    12    1
    14    11    12   ar
    15    12    13   ar
    16    13    14    1
    17    13    26   ar
    18    14    15    1
    19    15    16   ar
    20    15    25   ar
    21    16    17   ar
    22    17    18   ar
    23    18    19    2
    24    18    20   ar
    25    20    21   ar
    26    20    25   ar
    27    21    22   ar
    28    22    23   ar
    29    23    24   ar
    30    24    25   ar
    31    26    27    1
    32     1    28    1
    33     1    29    1
    34     3    30    1
    35     3    31    1
    36     4    32    1
    37     4    33    1
    38     5    34    1
    39     5    35    1
    40    11    36    1
    41    14    37    1
    42    14    38    1
    43    17    39    1
    44    21    40    1
    45    22    41    1
    46    23    42    1
    47    24    43    1
@<TRIPOS>MOLECULE
../data/bude_mols_rdkit_confs2/molecule_85.pdb
 43 47 0 0 0
SMALL
GASTEIGER

@<TRIPOS>ATOM
      1  N1        -3.0080    2.1130    0.3470 N.2     1  UNL1       -0.2917
      2  C1        -3.3890    0.9380    0.0910 C.2     1  UNL1        0.2504
      3  C2        -4.8590    0.6280   -0.0180 C.3     1  UNL1        0.0478
      4  C3        -5.1940   -0.3080   -1.1230 C.3     1  UNL1       -0.0318
      5  C4        -4.2200   -1.3820   -1.4330 C.3     1  UNL1        0.0484
      6  C5        -2.8080   -1.0870   -1.0850 C.2     1  UNL1        0.3083
      7  O1        -1.8960   -1.6700   -1.6850 O.2     1  UNL1       -0.2471
      8  N2        -2.4740   -0.1350   -0.0630 N.am    1  UNL1       -0.1261
      9  C6        -1.3530   -0.3010    0.7920 C.ar    1  UNL1        0.1718
     10  C7        -1.3350   -1.1630    1.8970 C.ar    1  UNL1        0.0312
     11  C8        -1.0320   -1.9170    3.0260 C.ar    1  UNL1       -0.0418
     12  C9        -0.0520   -1.0460    2.4960 C.ar    1  UNL1       -0.0068
     13  C10        0.6780   -0.1310    1.7580 C.ar    1  UNL1        0.0055
     14  C11        2.0630    0.2500    2.0980 C.3     1  UNL1        0.0205
     15  C12        2.8180    0.8280    0.9530 C.ar    1  UNL1        0.0737
     16  N3         2.9790    2.1830    0.8640 N.ar    1  UNL1       -0.1750
     17  N4         3.6150    2.7750   -0.1150 N.ar    1  UNL1       -0.2425
     18  C13        4.1480    2.0280   -1.0990 C.ar    1  UNL1        0.2725
     19  O2         4.7620    2.6240   -2.0400 O.2     1  UNL1       -0.2658
     20  C14        4.0520    0.6450   -1.1180 C.ar    1  UNL1        0.0496
     21  C15        4.6150   -0.1030   -2.1230 C.ar    1  UNL1       -0.0487
     22  C16        4.4780   -1.4710   -2.0450 C.ar    1  UNL1       -0.0610
     23  C17        3.8010   -2.0660   -0.9950 C.ar    1  UNL1       -0.0611
     24  C18        3.2420   -1.3100    0.0040 C.ar    1  UNL1       -0.0521
     25  C19        3.3600    0.0690   -0.0430 C.ar    1  UNL1        0.0106
     26  C20       -0.1380    0.3080    0.7220 C.ar    1  UNL1        0.1730
     27  F1         0.3070    1.2000   -0.1900 F       1  UNL1       -0.2009
     28 H          -3.6704    2.8344    0.4475 H       1  UNL1        0.3006
     29 H          -2.0483    2.3087    0.4462 H       1  UNL1        0.3006
     30 H          -5.3860    1.5448   -0.1810 H       1  UNL1        0.0386
     31 H          -5.1450    0.1481    0.8946 H       1  UNL1        0.0386
     32 H          -5.3191    0.2764   -2.0105 H       1  UNL1        0.0276
     33 H          -6.0686   -0.8240   -0.7858 H       1  UNL1        0.0276
     34 H          -4.2665   -1.5751   -2.4844 H       1  UNL1        0.0382
     35 H          -4.5025   -2.2172   -0.8268 H       1  UNL1        0.0382
     36 H          -1.3163   -2.6099    3.7360 H       1  UNL1        0.0631
     37 H           2.5803   -0.6224    2.4388 H       1  UNL1        0.0378
     38 H           2.0050    1.0077    2.8513 H       1  UNL1        0.0378
     39 H           3.7023    3.7555   -0.1311 H       1  UNL1        0.1921
     40 H           5.1203    0.3422   -2.9050 H       1  UNL1        0.0625
     41 H           4.8880   -2.0637   -2.7836 H       1  UNL1        0.0618
     42 H           3.7153   -3.0939   -0.9630 H       1  UNL1        0.0618
     43 H           2.7389   -1.7641    0.7823 H       1  UNL1        0.0624
@<TRIPOS>UNITY_ATOM_ATTR
1 1
charge 1
@<TRIPOS>BOND
     1     1     2    2
     2     2     3    1
     3     2     8    1
     4     3     4    1
     5     4     5    1
     6     5     6    1
     7     6     7    2
     8     6     8   am
     9     8     9    1
    10     9    10   ar
    11     9    26   ar
    12    10    11   ar
    13    10    12    1
    14    11    12   ar
    15    12    13   ar
    16    13    14    1
    17    13    26   ar
    18    14    15    1
    19    15    16   ar
    20    15    25   ar
    21    16    17   ar
    22    17    18   ar
    23    18    19    2
    24    18    20   ar
    25    20    21   ar
    26    20    25   ar
    27    21    22   ar
    28    22    23   ar
    29    23    24   ar
    30    24    25   ar
    31    26    27    1
    32     1    28    1
    33     1    29    1
    34     3    30    1
    35     3    31    1
    36     4    32    1
    37     4    33    1
    38     5    34    1
    39     5    35    1
    40    11    36    1
    41    14    37    1
    42    14    38    1
    43    17    39    1
    44    21    40    1
    45    22    41    1
    46    23    42    1
    47    24    43    1
@<TRIPOS>MOLECULE
../data/bude_mols_rdkit_confs2/molecule_85.pdb
 43 47 0 0 0
SMALL
GASTEIGER

@<TRIPOS>ATOM
      1  N1         4.2950    2.0050   -0.6100 N.2     1  UNL1       -0.2917
      2  C1         4.3280    0.8640   -0.0570 C.2     1  UNL1        0.2504
      3  C2         5.5260    0.4510    0.7380 C.3     1  UNL1        0.0478
      4  C3         5.5450   -0.9830    1.1160 C.3     1  UNL1       -0.0318
      5  C4         4.7900   -1.8730    0.1660 C.3     1  UNL1        0.0484
      6  C5         3.4390   -1.4030   -0.1220 C.2     1  UNL1        0.3083
      7  O1         2.4640   -2.1870   -0.2960 O.2     1  UNL1       -0.2471
      8  N2         3.2000    0.0020   -0.2130 N.am    1  UNL1       -0.1261
      9  C6         1.8740    0.4850   -0.4460 C.ar    1  UNL1        0.1718
     10  C7         1.4000    1.1790   -1.5350 C.ar    1  UNL1        0.0312
     11  C8         0.5980    1.8700   -2.4460 C.ar    1  UNL1       -0.0418
     12  C9        -0.0130    1.4260   -1.2750 C.ar    1  UNL1       -0.0068
     13  C10       -0.3340    0.8710   -0.0400 C.ar    1  UNL1        0.0055
     14  C11       -1.7100    0.9510    0.5300 C.3     1  UNL1        0.0205
     15  C12       -2.6320    0.0160   -0.1120 C.ar    1  UNL1        0.0737
     16  N3        -2.2320   -0.8380   -1.0710 N.ar    1  UNL1       -0.1750
     17  N4        -3.0840   -1.6820   -1.6470 N.ar    1  UNL1       -0.2425
     18  C13       -4.3870   -1.7480   -1.3220 C.ar    1  UNL1        0.2725
     19  O2        -5.1880   -2.5610   -1.8820 O.2     1  UNL1       -0.2658
     20  C14       -4.8720   -0.9020   -0.3440 C.ar    1  UNL1        0.0496
     21  C15       -6.2030   -0.9280    0.0270 C.ar    1  UNL1       -0.0487
     22  C16       -6.6210   -0.0560    1.0080 C.ar    1  UNL1       -0.0610
     23  C17       -5.7470    0.8240    1.6120 C.ar    1  UNL1       -0.0611
     24  C18       -4.4170    0.8380    1.2300 C.ar    1  UNL1       -0.0521
     25  C19       -3.9640   -0.0180    0.2530 C.ar    1  UNL1        0.0106
     26  C20        0.8070    0.3140    0.4370 C.ar    1  UNL1        0.1730
     27  F1         0.8860   -0.3290    1.6290 F       1  UNL1       -0.2009
     28 H           5.0593    2.6188   -0.5183 H       1  UNL1        0.3006
     29 H           3.5051    2.2769   -1.1310 H       1  UNL1        0.3006
     30 H           5.5498    1.0340    1.6349 H       1  UNL1        0.0386
     31 H           6.3788    0.6135    0.1125 H       1  UNL1        0.0386
     32 H           5.1092   -1.0811    2.0883 H       1  UNL1        0.0276
     33 H           6.5674   -1.2977    1.0910 H       1  UNL1        0.0276
     34 H           4.7240   -2.8501    0.5972 H       1  UNL1        0.0382
     35 H           5.3272   -1.8734   -0.7594 H       1  UNL1        0.0382
     36 H           0.5158    2.3622   -3.3493 H       1  UNL1        0.0631
     37 H          -2.0804    1.9459    0.3963 H       1  UNL1        0.0378
     38 H          -1.6504    0.6920    1.5665 H       1  UNL1        0.0378
     39 H          -2.7440   -2.2875   -2.3449 H       1  UNL1        0.1921
     40 H          -6.8652   -1.5823   -0.4184 H       1  UNL1        0.0625
     41 H          -7.6114   -0.0611    1.2980 H       1  UNL1        0.0618
     42 H          -6.0832    1.4683    2.3447 H       1  UNL1        0.0618
     43 H          -3.7609    1.4947    1.6809 H       1  UNL1        0.0624
@<TRIPOS>UNITY_ATOM_ATTR
1 1
charge 1
@<TRIPOS>BOND
     1     1     2    2
     2     2     3    1
     3     2     8    1
     4     3     4    1
     5     4     5    1
     6     5     6    1
     7     6     7    2
     8     6     8   am
     9     8     9    1
    10     9    10   ar
    11     9    26   ar
    12    10    11   ar
    13    10    12    1
    14    11    12   ar
    15    12    13   ar
    16    13    14    1
    17    13    26   ar
    18    14    15    1
    19    15    16   ar
    20    15    25   ar
    21    16    17   ar
    22    17    18   ar
    23    18    19    2
    24    18    20   ar
    25    20    21   ar
    26    20    25   ar
    27    21    22   ar
    28    22    23   ar
    29    23    24   ar
    30    24    25   ar
    31    26    27    1
    32     1    28    1
    33     1    29    1
    34     3    30    1
    35     3    31    1
    36     4    32    1
    37     4    33    1
    38     5    34    1
    39     5    35    1
    40    11    36    1
    41    14    37    1
    42    14    38    1
    43    17    39    1
    44    21    40    1
    45    22    41    1
    46    23    42    1
    47    24    43    1
@<TRIPOS>MOLECULE
../data/bude_mols_rdkit_confs2/molecule_85.pdb
 43 47 0 0 0
SMALL
GASTEIGER

@<TRIPOS>ATOM
      1  N1        -3.5840   -1.7100    1.2490 N.2     1  UNL1       -0.2917
      2  C1        -3.9480   -0.6290    0.6460 C.2     1  UNL1        0.2504
      3  C2        -5.1190    0.1760    1.0310 C.3     1  UNL1        0.0478
      4  C3        -5.9640    0.6530   -0.0980 C.3     1  UNL1       -0.0318
      5  C4        -5.2400    1.0830   -1.3150 C.3     1  UNL1        0.0484
      6  C5        -3.8620    0.6080   -1.4420 C.2     1  UNL1        0.3083
      7  O1        -3.2520    0.9200   -2.5020 O.2     1  UNL1       -0.2471
      8  N2        -3.1690   -0.1700   -0.4750 N.am    1  UNL1       -0.1261
      9  C6        -1.7940   -0.5140   -0.5450 C.ar    1  UNL1        0.1718
     10  C7        -1.1510   -1.0410   -1.6410 C.ar    1  UNL1        0.0312
     11  C8        -0.2690   -1.5770   -2.5950 C.ar    1  UNL1       -0.0418
     12  C9         0.2760   -1.2760   -1.3080 C.ar    1  UNL1       -0.0068
     13  C10        0.4030   -0.8650   -0.0040 C.ar    1  UNL1        0.0055
     14  C11        1.6650   -0.8930    0.8370 C.3     1  UNL1        0.0205
     15  C12        2.5900    0.1810    0.4870 C.ar    1  UNL1        0.0737
     16  N3         2.0820    1.3760    0.1360 N.ar    1  UNL1       -0.1750
     17  N4         2.8030    2.4010   -0.2270 N.ar    1  UNL1       -0.2425
     18  C13        4.1350    2.3080   -0.2690 C.ar    1  UNL1        0.2725
     19  O2         4.8280    3.2840   -0.6150 O.2     1  UNL1       -0.2658
     20  C14        4.7190    1.1110    0.0780 C.ar    1  UNL1        0.0496
     21  C15        6.0890    0.9530    0.0810 C.ar    1  UNL1       -0.0487
     22  C16        6.6840   -0.2410    0.4520 C.ar    1  UNL1       -0.0610
     23  C17        5.8920   -1.2980    0.8280 C.ar    1  UNL1       -0.0611
     24  C18        4.5110   -1.1770    0.8370 C.ar    1  UNL1       -0.0521
     25  C19        3.9460    0.0080    0.4670 C.ar    1  UNL1        0.0106
     26  C20       -0.8230   -0.4250    0.4160 C.ar    1  UNL1        0.1730
     27  F1        -1.0590    0.0600    1.6710 F       1  UNL1       -0.2009
     28 H          -4.1012   -2.0429    2.0177 H       1  UNL1        0.3006
     29 H          -2.7890   -2.2020    0.9404 H       1  UNL1        0.3006
     30 H          -4.7687    1.0335    1.5666 H       1  UNL1        0.0386
     31 H          -5.7422   -0.4695    1.6140 H       1  UNL1        0.0386
     32 H          -6.5384    1.4851    0.2521 H       1  UNL1        0.0276
     33 H          -6.5508   -0.1910   -0.3951 H       1  UNL1        0.0276
     34 H          -5.2198    2.1528   -1.3233 H       1  UNL1        0.0382
     35 H          -5.7719    0.6492   -2.1359 H       1  UNL1        0.0382
     36 H          -0.1198   -1.9354   -3.5512 H       1  UNL1        0.0631
     37 H           2.1563   -1.8319    0.6885 H       1  UNL1        0.0378
     38 H           1.3793   -0.7578    1.8593 H       1  UNL1        0.0378
     39 H           2.3632    3.2473   -0.4712 H       1  UNL1        0.1921
     40 H           6.6866    1.7458   -0.2008 H       1  UNL1        0.0625
     41 H           7.7116   -0.3356    0.4460 H       1  UNL1        0.0618
     42 H           6.3289   -2.1906    1.1064 H       1  UNL1        0.0618
     43 H           3.9183   -1.9730    1.1199 H       1  UNL1        0.0624
@<TRIPOS>UNITY_ATOM_ATTR
1 1
charge 1
@<TRIPOS>BOND
     1     1     2    2
     2     2     3    1
     3     2     8    1
     4     3     4    1
     5     4     5    1
     6     5     6    1
     7     6     7    2
     8     6     8   am
     9     8     9    1
    10     9    10   ar
    11     9    26   ar
    12    10    11   ar
    13    10    12    1
    14    11    12   ar
    15    12    13   ar
    16    13    14    1
    17    13    26   ar
    18    14    15    1
    19    15    16   ar
    20    15    25   ar
    21    16    17   ar
    22    17    18   ar
    23    18    19    2
    24    18    20   ar
    25    20    21   ar
    26    20    25   ar
    27    21    22   ar
    28    22    23   ar
    29    23    24   ar
    30    24    25   ar
    31    26    27    1
    32     1    28    1
    33     1    29    1
    34     3    30    1
    35     3    31    1
    36     4    32    1
    37     4    33    1
    38     5    34    1
    39     5    35    1
    40    11    36    1
    41    14    37    1
    42    14    38    1
    43    17    39    1
    44    21    40    1
    45    22    41    1
    46    23    42    1
    47    24    43    1
@<TRIPOS>MOLECULE
../data/bude_mols_rdkit_confs2/molecule_85.pdb
 43 47 0 0 0
SMALL
GASTEIGER

@<TRIPOS>ATOM
      1  N1        -3.3060    2.2050   -0.9280 N.2     1  UNL1       -0.2917
      2  C1        -3.7470    1.1790   -0.2950 C.2     1  UNL1        0.2504
      3  C2        -5.1120    1.1670    0.2830 C.3     1  UNL1        0.0478
      4  C3        -5.8980   -0.0490   -0.0860 C.3     1  UNL1       -0.0318
      5  C4        -5.1250   -1.2570   -0.4450 C.3     1  UNL1        0.0484
      6  C5        -3.6820   -1.2270   -0.0970 C.2     1  UNL1        0.3083
      7  O1        -3.0660   -2.2760    0.2280 O.2     1  UNL1       -0.2471
      8  N2        -2.9580    0.0100   -0.1230 N.am    1  UNL1       -0.1261
      9  C6        -1.5580    0.0200    0.0090 C.ar    1  UNL1        0.1718
     10  C7        -0.6300   -0.2740   -0.9730 C.ar    1  UNL1        0.0312
     11  C8         0.4980   -0.5330   -1.7780 C.ar    1  UNL1       -0.0418
     12  C9         0.6410   -0.1890   -0.4080 C.ar    1  UNL1       -0.0068
     13  C10        0.5260    0.1540    0.9190 C.ar    1  UNL1        0.0055
     14  C11        1.6410    0.3080    1.9250 C.3     1  UNL1        0.0205
     15  C12        2.8230   -0.3760    1.3550 C.ar    1  UNL1        0.0737
     16  N3         3.1020   -1.6340    1.8000 N.ar    1  UNL1       -0.1750
     17  N4         4.0940   -2.3610    1.3630 N.ar    1  UNL1       -0.2425
     18  C13        4.9100   -1.8560    0.4120 C.ar    1  UNL1        0.2725
     19  O2         5.8690   -2.5600   -0.0060 O.2     1  UNL1       -0.2658
     20  C14        4.6970   -0.6080   -0.0810 C.ar    1  UNL1        0.0496
     21  C15        5.5350   -0.0900   -1.0410 C.ar    1  UNL1       -0.0487
     22  C16        5.2860    1.1820   -1.5010 C.ar    1  UNL1       -0.0610
     23  C17        4.2320    1.9510   -1.0370 C.ar    1  UNL1       -0.0611
     24  C18        3.3950    1.4290   -0.0750 C.ar    1  UNL1       -0.0521
     25  C19        3.6290    0.1550    0.3990 C.ar    1  UNL1        0.0106
     26  C20       -0.8360    0.2810    1.1580 C.ar    1  UNL1        0.1730
     27  F1        -1.3050    0.6300    2.3840 F       1  UNL1       -0.2009
     28 H          -3.8752    3.0015   -1.0318 H       1  UNL1        0.3006
     29 H          -2.3986    2.1953   -1.3097 H       1  UNL1        0.3006
     30 H          -5.6373    2.0306   -0.0679 H       1  UNL1        0.0386
     31 H          -5.0059    1.1655    1.3477 H       1  UNL1        0.0386
     32 H          -6.5117    0.2042   -0.9252 H       1  UNL1        0.0276
     33 H          -6.4375   -0.3138    0.7993 H       1  UNL1        0.0276
     34 H          -5.2049   -1.3956   -1.5030 H       1  UNL1        0.0382
     35 H          -5.5467   -2.0540    0.1311 H       1  UNL1        0.0382
     36 H           0.9127   -0.7856   -2.6887 H       1  UNL1        0.0631
     37 H           1.3649   -0.1450    2.8542 H       1  UNL1        0.0378
     38 H           1.8478    1.3402    2.1164 H       1  UNL1        0.0378
     39 H           4.2456   -3.2653    1.7216 H       1  UNL1        0.1921
     40 H           6.3282   -0.6403   -1.4058 H       1  UNL1        0.0625
     41 H           5.9097    1.5793   -2.2209 H       1  UNL1        0.0618
     42 H           4.0756    2.9018   -1.4066 H       1  UNL1        0.0618
     43 H           2.6034    1.9840    0.2861 H       1  UNL1        0.0624
@<TRIPOS>UNITY_ATOM_ATTR
1 1
charge 1
@<TRIPOS>BOND
     1     1     2    2
     2     2     3    1
     3     2     8    1
     4     3     4    1
     5     4     5    1
     6     5     6    1
     7     6     7    2
     8     6     8   am
     9     8     9    1
    10     9    10   ar
    11     9    26   ar
    12    10    11   ar
    13    10    12    1
    14    11    12   ar
    15    12    13   ar
    16    13    14    1
    17    13    26   ar
    18    14    15    1
    19    15    16   ar
    20    15    25   ar
    21    16    17   ar
    22    17    18   ar
    23    18    19    2
    24    18    20   ar
    25    20    21   ar
    26    20    25   ar
    27    21    22   ar
    28    22    23   ar
    29    23    24   ar
    30    24    25   ar
    31    26    27    1
    32     1    28    1
    33     1    29    1
    34     3    30    1
    35     3    31    1
    36     4    32    1
    37     4    33    1
    38     5    34    1
    39     5    35    1
    40    11    36    1
    41    14    37    1
    42    14    38    1
    43    17    39    1
    44    21    40    1
    45    22    41    1
    46    23    42    1
    47    24    43    1
@<TRIPOS>MOLECULE
../data/bude_mols_rdkit_confs2/molecule_85.pdb
 43 47 0 0 0
SMALL
GASTEIGER

@<TRIPOS>ATOM
      1  N1        -2.6320   -0.3030   -1.9500 N.2     1  UNL1       -0.2917
      2  C1        -3.2510    0.4160   -1.0840 C.2     1  UNL1        0.2504
      3  C2        -4.4150    1.2070   -1.4770 C.3     1  UNL1        0.0478
      4  C3        -5.1330    1.9260   -0.4000 C.3     1  UNL1       -0.0318
      5  C4        -4.9080    1.4380    0.9920 C.3     1  UNL1        0.0484
      6  C5        -3.4480    1.2450    1.1900 C.2     1  UNL1        0.3083
      7  O1        -2.7910    1.7640    2.1320 O.2     1  UNL1       -0.2471
      8  N2        -2.7780    0.4180    0.2460 N.am    1  UNL1       -0.1261
      9  C6        -1.6480   -0.3920    0.6560 C.ar    1  UNL1        0.1718
     10  C7        -1.5310   -1.7470    0.5560 C.ar    1  UNL1        0.0312
     11  C8        -1.0470   -3.0770    0.6220 C.ar    1  UNL1       -0.0418
     12  C9        -0.2230   -2.0810    1.1010 C.ar    1  UNL1       -0.0068
     13  C10        0.4130   -0.8960    1.5170 C.ar    1  UNL1        0.0055
     14  C11        1.7600   -0.8870    2.1500 C.3     1  UNL1        0.0205
     15  C12        2.8450   -1.1930    1.2360 C.ar    1  UNL1        0.0737
     16  N3         3.3160   -2.4740    1.1320 N.ar    1  UNL1       -0.1750
     17  N4         4.2630   -2.8110    0.2870 N.ar    1  UNL1       -0.2425
     18  C13        4.8320   -1.9150   -0.5330 C.ar    1  UNL1        0.2725
     19  O2         5.7450   -2.2670   -1.3410 O.2     1  UNL1       -0.2658
     20  C14        4.4250   -0.6100   -0.4980 C.ar    1  UNL1        0.0496
     21  C15        5.0140    0.3290   -1.3300 C.ar    1  UNL1       -0.0487
     22  C16        4.5750    1.6340   -1.2390 C.ar    1  UNL1       -0.0610
     23  C17        3.5800    1.9790   -0.3460 C.ar    1  UNL1       -0.0611
     24  C18        3.0010    1.0390    0.4750 C.ar    1  UNL1       -0.0521
     25  C19        3.4110   -0.2630    0.4110 C.ar    1  UNL1        0.0106
     26  C20       -0.4850    0.0840    1.2280 C.ar    1  UNL1        0.1730
     27  F1        -0.3060    1.4240    1.4810 F       1  UNL1       -0.2009
     28 H          -2.9408   -0.3226   -2.8846 H       1  UNL1        0.3006
     29 H          -1.8488   -0.8344   -1.6791 H       1  UNL1        0.3006
     30 H          -5.1132    0.5441   -1.9439 H       1  UNL1        0.0386
     31 H          -4.0275    1.9747   -2.1137 H       1  UNL1        0.0386
     32 H          -6.1809    1.8544   -0.6040 H       1  UNL1        0.0276
     33 H          -4.7437    2.9225   -0.4168 H       1  UNL1        0.0276
     34 H          -5.4184    0.5087    1.1363 H       1  UNL1        0.0382
     35 H          -5.2841    2.1498    1.6969 H       1  UNL1        0.0382
     36 H          -1.2018   -4.0810    0.4402 H       1  UNL1        0.0631
     37 H           1.7672   -1.6134    2.9356 H       1  UNL1        0.0378
     38 H           1.9274    0.1079    2.5064 H       1  UNL1        0.0378
     39 H           4.5638   -3.7478    0.2545 H       1  UNL1        0.1921
     40 H           5.7561    0.0612   -1.9953 H       1  UNL1        0.0625
     41 H           4.9938    2.3581   -1.8434 H       1  UNL1        0.0618
     42 H           3.2647    2.9603   -0.2934 H       1  UNL1        0.0618
     43 H           2.2595    1.3163    1.1370 H       1  UNL1        0.0624
@<TRIPOS>UNITY_ATOM_ATTR
1 1
charge 1
@<TRIPOS>BOND
     1     1     2    2
     2     2     3    1
     3     2     8    1
     4     3     4    1
     5     4     5    1
     6     5     6    1
     7     6     7    2
     8     6     8   am
     9     8     9    1
    10     9    10   ar
    11     9    26   ar
    12    10    11   ar
    13    10    12    1
    14    11    12   ar
    15    12    13   ar
    16    13    14    1
    17    13    26   ar
    18    14    15    1
    19    15    16   ar
    20    15    25   ar
    21    16    17   ar
    22    17    18   ar
    23    18    19    2
    24    18    20   ar
    25    20    21   ar
    26    20    25   ar
    27    21    22   ar
    28    22    23   ar
    29    23    24   ar
    30    24    25   ar
    31    26    27    1
    32     1    28    1
    33     1    29    1
    34     3    30    1
    35     3    31    1
    36     4    32    1
    37     4    33    1
    38     5    34    1
    39     5    35    1
    40    11    36    1
    41    14    37    1
    42    14    38    1
    43    17    39    1
    44    21    40    1
    45    22    41    1
    46    23    42    1
    47    24    43    1
@<TRIPOS>MOLECULE
../data/bude_mols_rdkit_confs2/molecule_85.pdb
 43 47 0 0 0
SMALL
GASTEIGER

@<TRIPOS>ATOM
      1  N1        -2.7700    1.2130    1.7740 N.2     1  UNL1       -0.2917
      2  C1        -3.5310    0.7660    0.8350 C.2     1  UNL1        0.2504
      3  C2        -4.9200    1.2660    0.6510 C.3     1  UNL1        0.0478
      4  C3        -5.8820    0.2240    0.2280 C.3     1  UNL1       -0.0318
      5  C4        -5.3760   -0.7120   -0.8130 C.3     1  UNL1        0.0484
      6  C5        -3.9760   -1.1390   -0.6550 C.2     1  UNL1        0.3083
      7  O1        -3.5720   -2.2620   -1.0310 O.2     1  UNL1       -0.2471
      8  N2        -3.0350   -0.2270   -0.0460 N.am    1  UNL1       -0.1261
      9  C6        -1.6470   -0.2990   -0.3160 C.ar    1  UNL1        0.1718
     10  C7        -0.9300   -1.4740   -0.3630 C.ar    1  UNL1        0.0312
     11  C8         0.0690   -2.4750   -0.4840 C.ar    1  UNL1       -0.0418
     12  C9         0.4560   -1.1580   -0.6760 C.ar    1  UNL1       -0.0068
     13  C10        0.5310    0.2100   -0.8080 C.ar    1  UNL1        0.0055
     14  C11        1.7430    1.0420   -1.1630 C.3     1  UNL1        0.0205
     15  C12        2.7360    1.0990   -0.0740 C.ar    1  UNL1        0.0737
     16  N3         2.7850    2.1100    0.8090 N.ar    1  UNL1       -0.1750
     17  N4         3.6310    2.1780    1.8260 N.ar    1  UNL1       -0.2425
     18  C13        4.5250    1.2140    2.0530 C.ar    1  UNL1        0.2725
     19  O2         5.3310    1.2840    3.0290 O.2     1  UNL1       -0.2658
     20  C14        4.5380    0.1400    1.1890 C.ar    1  UNL1        0.0496
     21  C15        5.4650   -0.8600    1.4030 C.ar    1  UNL1       -0.0487
     22  C16        5.5120   -1.9330    0.5510 C.ar    1  UNL1       -0.0610
     23  C17        4.6330   -2.0000   -0.5100 C.ar    1  UNL1       -0.0611
     24  C18        3.7030   -1.0070   -0.7320 C.ar    1  UNL1       -0.0521
     25  C19        3.6580    0.0640    0.1260 C.ar    1  UNL1        0.0106
     26  C20       -0.7420    0.6920   -0.5870 C.ar    1  UNL1        0.1730
     27  F1        -1.0650    2.0110   -0.6340 F       1  UNL1       -0.2009
     28 H          -3.1040    1.9029    2.3919 H       1  UNL1        0.3006
     29 H          -1.8546    0.8646    1.8735 H       1  UNL1        0.3006
     30 H          -4.9056    2.0336   -0.0943 H       1  UNL1        0.0386
     31 H          -5.2496    1.6242    1.6039 H       1  UNL1        0.0386
     32 H          -6.7519    0.7124   -0.1589 H       1  UNL1        0.0276
     33 H          -6.0800   -0.3708    1.0951 H       1  UNL1        0.0276
     34 H          -5.4681   -0.2290   -1.7633 H       1  UNL1        0.0382
     35 H          -5.9660   -1.5999   -0.7214 H       1  UNL1        0.0382
     36 H           0.3253   -3.4742   -0.4518 H       1  UNL1        0.0631
     37 H           1.4210    2.0381   -1.3845 H       1  UNL1        0.0378
     38 H           2.2148    0.5808   -2.0054 H       1  UNL1        0.0378
     39 H           3.5994    2.9568    2.4274 H       1  UNL1        0.1921
     40 H           6.1186   -0.8003    2.1994 H       1  UNL1        0.0625
     41 H           6.2010   -2.6862    0.7025 H       1  UNL1        0.0618
     42 H           4.6724   -2.8089   -1.1497 H       1  UNL1        0.0618
     43 H           3.0513   -1.0676   -1.5299 H       1  UNL1        0.0624
@<TRIPOS>UNITY_ATOM_ATTR
1 1
charge 1
@<TRIPOS>BOND
     1     1     2    2
     2     2     3    1
     3     2     8    1
     4     3     4    1
     5     4     5    1
     6     5     6    1
     7     6     7    2
     8     6     8   am
     9     8     9    1
    10     9    10   ar
    11     9    26   ar
    12    10    11   ar
    13    10    12    1
    14    11    12   ar
    15    12    13   ar
    16    13    14    1
    17    13    26   ar
    18    14    15    1
    19    15    16   ar
    20    15    25   ar
    21    16    17   ar
    22    17    18   ar
    23    18    19    2
    24    18    20   ar
    25    20    21   ar
    26    20    25   ar
    27    21    22   ar
    28    22    23   ar
    29    23    24   ar
    30    24    25   ar
    31    26    27    1
    32     1    28    1
    33     1    29    1
    34     3    30    1
    35     3    31    1
    36     4    32    1
    37     4    33    1
    38     5    34    1
    39     5    35    1
    40    11    36    1
    41    14    37    1
    42    14    38    1
    43    17    39    1
    44    21    40    1
    45    22    41    1
    46    23    42    1
    47    24    43    1
@<TRIPOS>MOLECULE
../data/bude_mols_rdkit_confs2/molecule_85.pdb
 43 47 0 0 0
SMALL
GASTEIGER

@<TRIPOS>ATOM
      1  N1         3.5780   -1.1470   -2.0800 N.2     1  UNL1       -0.2917
      2  C1         3.8890   -0.7530   -0.8960 C.2     1  UNL1        0.2504
      3  C2         5.3170   -0.7490   -0.4970 C.3     1  UNL1        0.0478
      4  C3         5.6530    0.3340    0.4830 C.3     1  UNL1       -0.0318
      5  C4         4.6940    0.4880    1.6000 C.3     1  UNL1        0.0484
      6  C5         3.3320   -0.0110    1.3310 C.2     1  UNL1        0.3083
      7  O1         2.5410   -0.1590    2.3000 O.2     1  UNL1       -0.2471
      8  N2         2.8850   -0.3280    0.0210 N.am    1  UNL1       -0.1261
      9  C6         1.5150   -0.2280   -0.3630 C.ar    1  UNL1        0.1718
     10  C7         0.7370   -1.2350   -0.9030 C.ar    1  UNL1        0.0312
     11  C8        -0.3080   -2.0010   -1.4510 C.ar    1  UNL1       -0.0418
     12  C9        -0.5950   -0.6920   -1.1380 C.ar    1  UNL1       -0.0068
     13  C10       -0.5880    0.6160   -0.7380 C.ar    1  UNL1        0.0055
     14  C11       -1.7040    1.6330   -0.7620 C.3     1  UNL1        0.0205
     15  C12       -2.6510    1.3720    0.3190 C.ar    1  UNL1        0.0737
     16  N3        -2.4850    2.0300    1.4980 N.ar    1  UNL1       -0.1750
     17  N4        -3.2510    1.8190    2.5480 N.ar    1  UNL1       -0.2425
     18  C13       -4.2350    0.9170    2.4430 C.ar    1  UNL1        0.2725
     19  O2        -5.0140    0.6640    3.4260 O.2     1  UNL1       -0.2658
     20  C14       -4.4680    0.2110    1.2830 C.ar    1  UNL1        0.0496
     21  C15       -5.4920   -0.7050    1.1840 C.ar    1  UNL1       -0.0487
     22  C16       -5.6610   -1.3510   -0.0180 C.ar    1  UNL1       -0.0610
     23  C17       -4.8520   -1.1160   -1.1060 C.ar    1  UNL1       -0.0611
     24  C18       -3.8280   -0.2020   -1.0090 C.ar    1  UNL1       -0.0521
     25  C19       -3.6460    0.4540    0.1960 C.ar    1  UNL1        0.0106
     26  C20        0.6950    0.8730   -0.2750 C.ar    1  UNL1        0.1730
     27  F1         1.1170    2.0680    0.2150 F       1  UNL1       -0.2009
     28 H           4.2827   -1.4379   -2.7030 H       1  UNL1        0.3006
     29 H           2.6353   -1.1577   -2.3635 H       1  UNL1        0.3006
     30 H           5.9147   -0.6117   -1.3738 H       1  UNL1        0.0386
     31 H           5.5159   -1.6847   -0.0176 H       1  UNL1        0.0386
     32 H           5.6944    1.2615   -0.0489 H       1  UNL1        0.0276
     33 H           6.5861    0.0560    0.9268 H       1  UNL1        0.0276
     34 H           4.6246    1.5294    1.8356 H       1  UNL1        0.0382
     35 H           5.0753   -0.1072    2.4033 H       1  UNL1        0.0382
     36 H          -0.6316   -2.9069   -1.8247 H       1  UNL1        0.0631
     37 H          -2.2147    1.5746   -1.7004 H       1  UNL1        0.0378
     38 H          -1.2875    2.6099   -0.6316 H       1  UNL1        0.0378
     39 H          -3.1042    2.3113    3.3878 H       1  UNL1        0.1921
     40 H          -6.1120   -0.9000    1.9856 H       1  UNL1        0.0625
     41 H          -6.4247   -2.0393   -0.1077 H       1  UNL1        0.0618
     42 H          -5.0125   -1.6228   -1.9905 H       1  UNL1        0.0618
     43 H          -3.2115   -0.0106   -1.8142 H       1  UNL1        0.0624
@<TRIPOS>UNITY_ATOM_ATTR
1 1
charge 1
@<TRIPOS>BOND
     1     1     2    2
     2     2     3    1
     3     2     8    1
     4     3     4    1
     5     4     5    1
     6     5     6    1
     7     6     7    2
     8     6     8   am
     9     8     9    1
    10     9    10   ar
    11     9    26   ar
    12    10    11   ar
    13    10    12    1
    14    11    12   ar
    15    12    13   ar
    16    13    14    1
    17    13    26   ar
    18    14    15    1
    19    15    16   ar
    20    15    25   ar
    21    16    17   ar
    22    17    18   ar
    23    18    19    2
    24    18    20   ar
    25    20    21   ar
    26    20    25   ar
    27    21    22   ar
    28    22    23   ar
    29    23    24   ar
    30    24    25   ar
    31    26    27    1
    32     1    28    1
    33     1    29    1
    34     3    30    1
    35     3    31    1
    36     4    32    1
    37     4    33    1
    38     5    34    1
    39     5    35    1
    40    11    36    1
    41    14    37    1
    42    14    38    1
    43    17    39    1
    44    21    40    1
    45    22    41    1
    46    23    42    1
    47    24    43    1
@<TRIPOS>MOLECULE
../data/bude_mols_rdkit_confs2/molecule_85.pdb
 43 47 0 0 0
SMALL
GASTEIGER

@<TRIPOS>ATOM
      1  N1         3.0080    2.0020   -0.9840 N.2     1  UNL1       -0.2917
      2  C1         3.5940    1.1350   -0.2390 C.2     1  UNL1        0.2504
      3  C2         4.9000    1.4650    0.4410 C.3     1  UNL1        0.0478
      4  C3         5.8640    0.3430    0.3410 C.3     1  UNL1       -0.0318
      5  C4         5.3400   -1.0270    0.5490 C.3     1  UNL1        0.0484
      6  C5         3.9310   -1.2200    0.2040 C.2     1  UNL1        0.3083
      7  O1         3.4960   -2.3950    0.1110 O.2     1  UNL1       -0.2471
      8  N2         3.0190   -0.1440   -0.0360 N.am    1  UNL1       -0.1261
      9  C6         1.6100   -0.3620   -0.0570 C.ar    1  UNL1        0.1718
     10  C7         0.7730   -0.1940   -1.1300 C.ar    1  UNL1        0.0312
     11  C8        -0.2970   -0.1070   -2.0530 C.ar    1  UNL1       -0.0418
     12  C9        -0.5890   -0.5270   -0.7350 C.ar    1  UNL1       -0.0068
     13  C10       -0.5100   -0.8880    0.5850 C.ar    1  UNL1        0.0055
     14  C11       -1.6680   -1.3320    1.4580 C.3     1  UNL1        0.0205
     15  C12       -2.9050   -1.3670    0.6920 C.ar    1  UNL1        0.0737
     16  N3        -3.4420   -2.5110    0.2400 N.ar    1  UNL1       -0.1750
     17  N4        -4.5720   -2.5380   -0.4660 N.ar    1  UNL1       -0.2425
     18  C13       -5.2660   -1.4320   -0.7830 C.ar    1  UNL1        0.2725
     19  O2        -6.3340   -1.4830   -1.4530 O.2     1  UNL1       -0.2658
     20  C14       -4.7710   -0.2230   -0.3500 C.ar    1  UNL1        0.0496
     21  C15       -5.4640    0.9270   -0.6580 C.ar    1  UNL1       -0.0487
     22  C16       -5.0010    2.1390   -0.2400 C.ar    1  UNL1       -0.0610
     23  C17       -3.8330    2.1730    0.4910 C.ar    1  UNL1       -0.0611
     24  C18       -3.1380    1.0140    0.7990 C.ar    1  UNL1       -0.0521
     25  C19       -3.5900   -0.2130    0.3860 C.ar    1  UNL1        0.0106
     26  C20        0.8030   -0.7840    0.9730 C.ar    1  UNL1        0.1730
     27  F1         1.2470   -1.0590    2.2110 F       1  UNL1       -0.2009
     28 H           3.4138    2.8886   -1.1202 H       1  UNL1        0.3006
     29 H           2.1531    1.7799   -1.4188 H       1  UNL1        0.3006
     30 H           4.7118    1.6705    1.4741 H       1  UNL1        0.0386
     31 H           5.3257    2.3175   -0.0458 H       1  UNL1        0.0386
     32 H           6.6269    0.5093    1.0726 H       1  UNL1        0.0276
     33 H           6.1959    0.3574   -0.6761 H       1  UNL1        0.0276
     34 H           5.4634   -1.2741    1.5827 H       1  UNL1        0.0382
     35 H           5.8945   -1.6581   -0.1136 H       1  UNL1        0.0382
     36 H          -0.6276    0.1088   -3.0065 H       1  UNL1        0.0631
     37 H          -1.7779   -0.6458    2.2716 H       1  UNL1        0.0378
     38 H          -1.4637   -2.3153    1.8271 H       1  UNL1        0.0378
     39 H          -4.9145   -3.4096   -0.7697 H       1  UNL1        0.1921
     40 H          -6.3362    0.8708   -1.2068 H       1  UNL1        0.0625
     41 H          -5.5111    3.0075   -0.4647 H       1  UNL1        0.0618
     42 H          -3.4678    3.0817    0.8163 H       1  UNL1        0.0618
     43 H          -2.2663    1.0755    1.3480 H       1  UNL1        0.0624
@<TRIPOS>UNITY_ATOM_ATTR
1 1
charge 1
@<TRIPOS>BOND
     1     1     2    2
     2     2     3    1
     3     2     8    1
     4     3     4    1
     5     4     5    1
     6     5     6    1
     7     6     7    2
     8     6     8   am
     9     8     9    1
    10     9    10   ar
    11     9    26   ar
    12    10    11   ar
    13    10    12    1
    14    11    12   ar
    15    12    13   ar
    16    13    14    1
    17    13    26   ar
    18    14    15    1
    19    15    16   ar
    20    15    25   ar
    21    16    17   ar
    22    17    18   ar
    23    18    19    2
    24    18    20   ar
    25    20    21   ar
    26    20    25   ar
    27    21    22   ar
    28    22    23   ar
    29    23    24   ar
    30    24    25   ar
    31    26    27    1
    32     1    28    1
    33     1    29    1
    34     3    30    1
    35     3    31    1
    36     4    32    1
    37     4    33    1
    38     5    34    1
    39     5    35    1
    40    11    36    1
    41    14    37    1
    42    14    38    1
    43    17    39    1
    44    21    40    1
    45    22    41    1
    46    23    42    1
    47    24    43    1
@<TRIPOS>MOLECULE
../data/bude_mols_rdkit_confs2/molecule_85.pdb
 43 47 0 0 0
SMALL
GASTEIGER

@<TRIPOS>ATOM
      1  N1        -3.8600    2.0430    0.0220 N.2     1  UNL1       -0.2917
      2  C1        -4.0500    0.7650    0.0910 C.2     1  UNL1        0.2504
      3  C2        -5.4520    0.2980    0.0930 C.3     1  UNL1        0.0478
      4  C3        -5.6810   -1.1050   -0.2760 C.3     1  UNL1       -0.0318
      5  C4        -4.4840   -1.9590   -0.4700 C.3     1  UNL1        0.0484
      6  C5        -3.2500   -1.5110    0.1610 C.2     1  UNL1        0.3083
      7  O1        -2.4250   -2.3040    0.7170 O.2     1  UNL1       -0.2471
      8  N2        -2.9450   -0.1230    0.1630 N.am    1  UNL1       -0.1261
      9  C6        -1.6120    0.3580    0.2320 C.ar    1  UNL1        0.1718
     10  C7        -1.0240    1.1230   -0.7440 C.ar    1  UNL1        0.0312
     11  C8        -0.1930    1.9010   -1.5790 C.ar    1  UNL1       -0.0418
     12  C9         0.3460    1.4180   -0.3480 C.ar    1  UNL1       -0.0068
     13  C10        0.5290    0.8070    0.8730 C.ar    1  UNL1        0.0055
     14  C11        1.7080    0.7560    1.7390 C.3     1  UNL1        0.0205
     15  C12        2.7630   -0.1760    1.3500 C.ar    1  UNL1        0.0737
     16  N3         2.8080   -1.4150    1.9180 N.ar    1  UNL1       -0.1750
     17  N4         3.6950   -2.3350    1.5940 N.ar    1  UNL1       -0.2425
     18  C13        4.6070   -2.0730    0.6670 C.ar    1  UNL1        0.2725
     19  O2         5.4860   -2.9330    0.3180 O.2     1  UNL1       -0.2658
     20  C14        4.6630   -0.8660    0.0280 C.ar    1  UNL1        0.0496
     21  C15        5.6210   -0.5910   -0.9320 C.ar    1  UNL1       -0.0487
     22  C16        5.6090    0.6550   -1.5150 C.ar    1  UNL1       -0.0610
     23  C17        4.6810    1.6140   -1.1670 C.ar    1  UNL1       -0.0611
     24  C18        3.7270    1.3230   -0.2050 C.ar    1  UNL1       -0.0521
     25  C19        3.7080    0.0980    0.3910 C.ar    1  UNL1        0.0106
     26  C20       -0.6720    0.1720    1.2020 C.ar    1  UNL1        0.1730
     27  F1        -0.8710   -0.5290    2.3370 F       1  UNL1       -0.2009
     28 H          -4.6309    2.6533   -0.0277 H       1  UNL1        0.3006
     29 H          -2.9445    2.4051    0.0192 H       1  UNL1        0.3006
     30 H          -5.9977    0.9077   -0.5965 H       1  UNL1        0.0386
     31 H          -5.7729    0.3768    1.1107 H       1  UNL1        0.0386
     32 H          -6.2325   -1.1108   -1.1929 H       1  UNL1        0.0276
     33 H          -6.1907   -1.5311    0.5628 H       1  UNL1        0.0276
     34 H          -4.3030   -2.0289   -1.5223 H       1  UNL1        0.0382
     35 H          -4.7215   -2.8874    0.0060 H       1  UNL1        0.0382
     36 H          -0.0661    2.4355   -2.4526 H       1  UNL1        0.0631
     37 H           1.3791    0.4835    2.7200 H       1  UNL1        0.0378
     38 H           2.1504    1.7280    1.6723 H       1  UNL1        0.0378
     39 H           3.6806   -3.2133    2.0385 H       1  UNL1        0.1921
     40 H           6.3223   -1.2983   -1.2021 H       1  UNL1        0.0625
     41 H           6.3150    0.8786   -2.2337 H       1  UNL1        0.0618
     42 H           4.6969    2.5413   -1.6196 H       1  UNL1        0.0618
     43 H           3.0294    2.0357    0.0605 H       1  UNL1        0.0624
@<TRIPOS>UNITY_ATOM_ATTR
1 1
charge 1
@<TRIPOS>BOND
     1     1     2    2
     2     2     3    1
     3     2     8    1
     4     3     4    1
     5     4     5    1
     6     5     6    1
     7     6     7    2
     8     6     8   am
     9     8     9    1
    10     9    10   ar
    11     9    26   ar
    12    10    11   ar
    13    10    12    1
    14    11    12   ar
    15    12    13   ar
    16    13    14    1
    17    13    26   ar
    18    14    15    1
    19    15    16   ar
    20    15    25   ar
    21    16    17   ar
    22    17    18   ar
    23    18    19    2
    24    18    20   ar
    25    20    21   ar
    26    20    25   ar
    27    21    22   ar
    28    22    23   ar
    29    23    24   ar
    30    24    25   ar
    31    26    27    1
    32     1    28    1
    33     1    29    1
    34     3    30    1
    35     3    31    1
    36     4    32    1
    37     4    33    1
    38     5    34    1
    39     5    35    1
    40    11    36    1
    41    14    37    1
    42    14    38    1
    43    17    39    1
    44    21    40    1
    45    22    41    1
    46    23    42    1
    47    24    43    1
@<TRIPOS>MOLECULE
../data/bude_mols_rdkit_confs2/molecule_85.pdb
 43 47 0 0 0
SMALL
GASTEIGER

@<TRIPOS>ATOM
      1  N1         2.6620   -1.3060   -1.7090 N.2     1  UNL1       -0.2917
      2  C1         3.5000   -0.5620   -1.0740 C.2     1  UNL1        0.2504
      3  C2         4.6640    0.0290   -1.7760 C.3     1  UNL1        0.0478
      4  C3         5.5520    0.8170   -0.8550 C.3     1  UNL1       -0.0318
      5  C4         5.7300    0.1620    0.4830 C.3     1  UNL1        0.0484
      6  C5         4.4410   -0.1010    1.1480 C.2     1  UNL1        0.3083
      7  O1         4.3050   -0.1540    2.4000 O.2     1  UNL1       -0.2471
      8  N2         3.2970   -0.3040    0.2990 N.am    1  UNL1       -0.1261
      9  C6         1.9740   -0.2320    0.8290 C.ar    1  UNL1        0.1718
     10  C7         1.5480   -0.7920    2.0070 C.ar    1  UNL1        0.0312
     11  C8         0.8670   -1.2430    3.1270 C.ar    1  UNL1       -0.0418
     12  C9         0.1140   -0.4760    2.1930 C.ar    1  UNL1       -0.0068
     13  C10       -0.2430    0.2610    1.1090 C.ar    1  UNL1        0.0055
     14  C11       -1.5760    0.8640    0.8040 C.3     1  UNL1        0.0205
     15  C12       -2.5660   -0.1200    0.3480 C.ar    1  UNL1        0.0737
     16  N3        -2.3760   -1.4440    0.2440 N.ar    1  UNL1       -0.1750
     17  N4        -3.3490   -2.2660   -0.1780 N.ar    1  UNL1       -0.2425
     18  C13       -4.5640   -1.7960   -0.5160 C.ar    1  UNL1        0.2725
     19  O2        -5.4730   -2.5780   -0.9100 O.2     1  UNL1       -0.2658
     20  C14       -4.8450   -0.4510   -0.4390 C.ar    1  UNL1        0.0496
     21  C15       -6.0880    0.0260   -0.7890 C.ar    1  UNL1       -0.0487
     22  C16       -6.3040    1.3990   -0.6900 C.ar    1  UNL1       -0.0610
     23  C17       -5.2890    2.2450   -0.2520 C.ar    1  UNL1       -0.0611
     24  C18       -4.0660    1.7220    0.0850 C.ar    1  UNL1       -0.0521
     25  C19       -3.8180    0.3710   -0.0000 C.ar    1  UNL1        0.0106
     26  C20        0.8880    0.3990    0.2960 C.ar    1  UNL1        0.1730
     27  F1         0.9360    1.0700   -0.8890 F       1  UNL1       -0.2009
     28 H           2.7956   -1.4913   -2.6666 H       1  UNL1        0.3006
     29 H           1.8879   -1.6894   -1.2367 H       1  UNL1        0.3006
     30 H           4.3060    0.6790   -2.5468 H       1  UNL1        0.0386
     31 H           5.2442   -0.7753   -2.1777 H       1  UNL1        0.0386
     32 H           5.1188    1.7841   -0.7072 H       1  UNL1        0.0276
     33 H           6.5167    0.8798   -1.3136 H       1  UNL1        0.0276
     34 H           6.3151    0.8051    1.1068 H       1  UNL1        0.0382
     35 H           6.2180   -0.7774    0.3274 H       1  UNL1        0.0382
     36 H           0.8898   -1.7674    4.0155 H       1  UNL1        0.0631
     37 H          -1.4491    1.5991    0.0369 H       1  UNL1        0.0378
     38 H          -1.9471    1.2905    1.7124 H       1  UNL1        0.0378
     39 H          -3.1706   -3.2321   -0.2416 H       1  UNL1        0.1921
     40 H          -6.8330   -0.6104   -1.1130 H       1  UNL1        0.0625
     41 H          -7.2240    1.7919   -0.9435 H       1  UNL1        0.0618
     42 H          -5.4556    3.2610   -0.1811 H       1  UNL1        0.0618
     43 H          -3.3173    2.3543    0.4086 H       1  UNL1        0.0624
@<TRIPOS>UNITY_ATOM_ATTR
1 1
charge 1
@<TRIPOS>BOND
     1     1     2    2
     2     2     3    1
     3     2     8    1
     4     3     4    1
     5     4     5    1
     6     5     6    1
     7     6     7    2
     8     6     8   am
     9     8     9    1
    10     9    10   ar
    11     9    26   ar
    12    10    11   ar
    13    10    12    1
    14    11    12   ar
    15    12    13   ar
    16    13    14    1
    17    13    26   ar
    18    14    15    1
    19    15    16   ar
    20    15    25   ar
    21    16    17   ar
    22    17    18   ar
    23    18    19    2
    24    18    20   ar
    25    20    21   ar
    26    20    25   ar
    27    21    22   ar
    28    22    23   ar
    29    23    24   ar
    30    24    25   ar
    31    26    27    1
    32     1    28    1
    33     1    29    1
    34     3    30    1
    35     3    31    1
    36     4    32    1
    37     4    33    1
    38     5    34    1
    39     5    35    1
    40    11    36    1
    41    14    37    1
    42    14    38    1
    43    17    39    1
    44    21    40    1
    45    22    41    1
    46    23    42    1
    47    24    43    1
@<TRIPOS>MOLECULE
../data/bude_mols_rdkit_confs2/molecule_85.pdb
 43 47 0 0 0
SMALL
GASTEIGER

@<TRIPOS>ATOM
      1  N1        -3.3850   -1.1900    1.4000 N.2     1  UNL1       -0.2917
      2  C1        -3.8890   -0.3360    0.6120 C.2     1  UNL1        0.2504
      3  C2        -5.1160    0.4090    1.0400 C.3     1  UNL1        0.0478
      4  C3        -5.6050    1.3130   -0.0900 C.3     1  UNL1       -0.0318
      5  C4        -5.6610    0.4520   -1.3530 C.3     1  UNL1        0.0484
      6  C5        -4.2360    0.0890   -1.7190 C.2     1  UNL1        0.3083
      7  O1        -3.9220   -0.0430   -2.9040 O.2     1  UNL1       -0.2471
      8  N2        -3.3010   -0.0890   -0.6430 N.am    1  UNL1       -0.1261
      9  C6        -1.9140    0.0190   -0.8780 C.ar    1  UNL1        0.1718
     10  C7        -1.3160   -0.0080   -2.1450 C.ar    1  UNL1        0.0312
     11  C8        -0.4560    0.0180   -3.2510 C.ar    1  UNL1       -0.0418
     12  C9         0.1050    0.2120   -1.9530 C.ar    1  UNL1       -0.0068
     13  C10        0.3450    0.3680   -0.6020 C.ar    1  UNL1        0.0055
     14  C11        1.6290    0.6640    0.0170 C.3     1  UNL1        0.0205
     15  C12        2.6420   -0.3770    0.0240 C.ar    1  UNL1        0.0737
     16  N3         2.5430   -1.6110   -0.4420 N.ar    1  UNL1       -0.1750
     17  N4         3.5370   -2.5040   -0.4220 N.ar    1  UNL1       -0.2425
     18  C13        4.7450   -2.2000    0.0880 C.ar    1  UNL1        0.2725
     19  O2         5.6320   -3.0870    0.0730 O.2     1  UNL1       -0.2658
     20  C14        4.9190   -0.9260    0.5940 C.ar    1  UNL1        0.0496
     21  C15        6.1650   -0.6410    1.1160 C.ar    1  UNL1       -0.0487
     22  C16        6.3300    0.6400    1.6250 C.ar    1  UNL1       -0.0610
     23  C17        5.3200    1.5670    1.6130 C.ar    1  UNL1       -0.0611
     24  C18        4.0840    1.2570    1.0860 C.ar    1  UNL1       -0.0521
     25  C19        3.8800   -0.0040    0.5710 C.ar    1  UNL1        0.0106
     26  C20       -0.8910    0.2430    0.0180 C.ar    1  UNL1        0.1730
     27  F1        -1.0180    0.3450    1.3790 F       1  UNL1       -0.2009
     28 H          -3.8016   -1.3575    2.2761 H       1  UNL1        0.3006
     29 H          -2.5766   -1.6863    1.1364 H       1  UNL1        0.3006
     30 H          -4.8855    1.0072    1.8967 H       1  UNL1        0.0386
     31 H          -5.8850   -0.2945    1.2821 H       1  UNL1        0.0386
     32 H          -4.9258    2.1279   -0.2297 H       1  UNL1        0.0276
     33 H          -6.5663    1.7245    0.1367 H       1  UNL1        0.0276
     34 H          -6.1144    1.0024   -2.1508 H       1  UNL1        0.0382
     35 H          -6.2432   -0.4295   -1.1832 H       1  UNL1        0.0382
     36 H          -0.3234   -0.0525   -4.2720 H       1  UNL1        0.0631
     37 H           1.4371    0.9272    1.0362 H       1  UNL1        0.0378
     38 H           2.0465    1.4372   -0.5935 H       1  UNL1        0.0378
     39 H           3.3822   -3.4045   -0.7885 H       1  UNL1        0.1921
     40 H           6.9267   -1.3373    1.1271 H       1  UNL1        0.0625
     41 H           7.2437    0.9033    2.0259 H       1  UNL1        0.0618
     42 H           5.4867    2.5078    2.0029 H       1  UNL1        0.0618
     43 H           3.3258    1.9570    1.0776 H       1  UNL1        0.0624
@<TRIPOS>UNITY_ATOM_ATTR
1 1
charge 1
@<TRIPOS>BOND
     1     1     2    2
     2     2     3    1
     3     2     8    1
     4     3     4    1
     5     4     5    1
     6     5     6    1
     7     6     7    2
     8     6     8   am
     9     8     9    1
    10     9    10   ar
    11     9    26   ar
    12    10    11   ar
    13    10    12    1
    14    11    12   ar
    15    12    13   ar
    16    13    14    1
    17    13    26   ar
    18    14    15    1
    19    15    16   ar
    20    15    25   ar
    21    16    17   ar
    22    17    18   ar
    23    18    19    2
    24    18    20   ar
    25    20    21   ar
    26    20    25   ar
    27    21    22   ar
    28    22    23   ar
    29    23    24   ar
    30    24    25   ar
    31    26    27    1
    32     1    28    1
    33     1    29    1
    34     3    30    1
    35     3    31    1
    36     4    32    1
    37     4    33    1
    38     5    34    1
    39     5    35    1
    40    11    36    1
    41    14    37    1
    42    14    38    1
    43    17    39    1
    44    21    40    1
    45    22    41    1
    46    23    42    1
    47    24    43    1
@<TRIPOS>MOLECULE
../data/bude_mols_rdkit_confs2/molecule_85.pdb
 43 47 0 0 0
SMALL
GASTEIGER

@<TRIPOS>ATOM
      1  N1        -4.0850   -1.9930    0.3810 N.2     1  UNL1       -0.2917
      2  C1        -4.1190   -0.6910    0.3030 C.2     1  UNL1        0.2504
      3  C2        -5.3290    0.0360    0.6920 C.3     1  UNL1        0.0478
      4  C3        -5.6840    1.2120   -0.1540 C.3     1  UNL1       -0.0318
      5  C4        -4.6490    1.5410   -1.1880 C.3     1  UNL1        0.0484
      6  C5        -3.2590    1.2850   -0.7700 C.2     1  UNL1        0.3083
      7  O1        -2.3320    2.1150   -0.9180 O.2     1  UNL1       -0.2471
      8  N2        -2.9760    0.0360   -0.1710 N.am    1  UNL1       -0.1261
      9  C6        -1.6800   -0.5080   -0.0470 C.ar    1  UNL1        0.1718
     10  C7        -1.3030   -1.6470   -0.7600 C.ar    1  UNL1        0.0312
     11  C8        -0.6340   -2.7410   -1.3020 C.ar    1  UNL1       -0.0418
     12  C9         0.0470   -1.9370   -0.3660 C.ar    1  UNL1       -0.0068
     13  C10        0.4540   -0.9770    0.5700 C.ar    1  UNL1        0.0055
     14  C11        1.8010   -1.0540    1.2350 C.3     1  UNL1        0.0205
     15  C12        2.8710   -0.7350    0.3440 C.ar    1  UNL1        0.0737
     16  N3         2.8930   -1.4590   -0.8240 N.ar    1  UNL1       -0.1750
     17  N4         3.7590   -1.2420   -1.7870 N.ar    1  UNL1       -0.2425
     18  C13        4.6990   -0.2940   -1.7080 C.ar    1  UNL1        0.2725
     19  O2         5.5360   -0.0770   -2.6250 O.2     1  UNL1       -0.2658
     20  C14        4.7700    0.5000   -0.5640 C.ar    1  UNL1        0.0496
     21  C15        5.7600    1.4410   -0.4230 C.ar    1  UNL1       -0.0487
     22  C16        5.8350    2.1560    0.7420 C.ar    1  UNL1       -0.0610
     23  C17        4.9160    1.9130    1.7380 C.ar    1  UNL1       -0.0611
     24  C18        3.9230    0.9690    1.5940 C.ar    1  UNL1       -0.0521
     25  C19        3.8380    0.2440    0.4280 C.ar    1  UNL1        0.0106
     26  C20       -0.5910   -0.1390    0.7410 C.ar    1  UNL1        0.1730
     27  F1        -0.6450    0.9490    1.5580 F       1  UNL1       -0.2009
     28 H          -4.8716   -2.4873    0.7068 H       1  UNL1        0.3006
     29 H          -3.2727   -2.4811    0.1141 H       1  UNL1        0.3006
     30 H          -5.1946    0.3828    1.6953 H       1  UNL1        0.0386
     31 H          -6.1342   -0.6587    0.5738 H       1  UNL1        0.0386
     32 H          -5.8078    2.0624    0.4835 H       1  UNL1        0.0276
     33 H          -6.5830    0.9622   -0.6778 H       1  UNL1        0.0276
     34 H          -4.7384    2.5793   -1.4307 H       1  UNL1        0.0382
     35 H          -4.8380    0.8967   -2.0211 H       1  UNL1        0.0382
     36 H          -0.6356   -3.5560   -1.9350 H       1  UNL1        0.0631
     37 H           1.9457   -2.0484    1.6026 H       1  UNL1        0.0378
     38 H           1.8133   -0.3354    2.0277 H       1  UNL1        0.0378
     39 H           3.7146   -1.7984   -2.5980 H       1  UNL1        0.1921
     40 H           6.4373    1.6067   -1.1838 H       1  UNL1        0.0625
     41 H           6.5708    2.8679    0.8720 H       1  UNL1        0.0618
     42 H           4.9725    2.4525    2.6160 H       1  UNL1        0.0618
     43 H           3.2468    0.8067    2.3565 H       1  UNL1        0.0624
@<TRIPOS>UNITY_ATOM_ATTR
1 1
charge 1
@<TRIPOS>BOND
     1     1     2    2
     2     2     3    1
     3     2     8    1
     4     3     4    1
     5     4     5    1
     6     5     6    1
     7     6     7    2
     8     6     8   am
     9     8     9    1
    10     9    10   ar
    11     9    26   ar
    12    10    11   ar
    13    10    12    1
    14    11    12   ar
    15    12    13   ar
    16    13    14    1
    17    13    26   ar
    18    14    15    1
    19    15    16   ar
    20    15    25   ar
    21    16    17   ar
    22    17    18   ar
    23    18    19    2
    24    18    20   ar
    25    20    21   ar
    26    20    25   ar
    27    21    22   ar
    28    22    23   ar
    29    23    24   ar
    30    24    25   ar
    31    26    27    1
    32     1    28    1
    33     1    29    1
    34     3    30    1
    35     3    31    1
    36     4    32    1
    37     4    33    1
    38     5    34    1
    39     5    35    1
    40    11    36    1
    41    14    37    1
    42    14    38    1
    43    17    39    1
    44    21    40    1
    45    22    41    1
    46    23    42    1
    47    24    43    1
@<TRIPOS>MOLECULE
../data/bude_mols_rdkit_confs2/molecule_85.pdb
 43 47 0 0 0
SMALL
GASTEIGER

@<TRIPOS>ATOM
      1  N1         3.0320    0.3930   -1.7410 N.2     1  UNL1       -0.2917
      2  C1         3.3280    0.3670   -0.5020 C.2     1  UNL1        0.2504
      3  C2         4.6280    0.9410   -0.0910 C.3     1  UNL1        0.0478
      4  C3         4.9020    0.9140    1.3620 C.3     1  UNL1       -0.0318
      5  C4         3.6660    0.9160    2.2210 C.3     1  UNL1        0.0484
      6  C5         2.6320   -0.0460    1.7920 C.2     1  UNL1        0.3083
      7  O1         1.9370   -0.7180    2.6270 O.2     1  UNL1       -0.2471
      8  N2         2.4110   -0.2210    0.4090 N.am    1  UNL1       -0.1261
      9  C6         1.3290   -0.9620   -0.1450 C.ar    1  UNL1        0.1718
     10  C7         1.4020   -2.3620   -0.2320 C.ar    1  UNL1        0.0312
     11  C8         1.1160   -3.6920   -0.4830 C.ar    1  UNL1       -0.0418
     12  C9         0.1220   -2.7350   -0.8680 C.ar    1  UNL1       -0.0068
     13  C10       -0.6050   -1.6070   -1.1140 C.ar    1  UNL1        0.0055
     14  C11       -1.9280   -1.5770   -1.7750 C.3     1  UNL1        0.0205
     15  C12       -2.5820   -0.2850   -1.5170 C.ar    1  UNL1        0.0737
     16  N3        -2.6010    0.6940   -2.4400 N.ar    1  UNL1       -0.1750
     17  N4        -3.1780    1.8640   -2.2540 N.ar    1  UNL1       -0.2425
     18  C13       -3.7980    2.1580   -1.0970 C.ar    1  UNL1        0.2725
     19  O2        -4.3400    3.2810   -0.9380 O.2     1  UNL1       -0.2658
     20  C14       -3.8180    1.1960   -0.1010 C.ar    1  UNL1        0.0496
     21  C15       -4.4570    1.4560    1.0960 C.ar    1  UNL1       -0.0487
     22  C16       -4.4820    0.4840    2.0830 C.ar    1  UNL1       -0.0610
     23  C17       -3.8650   -0.7320    1.8530 C.ar    1  UNL1       -0.0611
     24  C18       -3.2290   -1.0090    0.6790 C.ar    1  UNL1       -0.0521
     25  C19       -3.2030   -0.0440   -0.3090 C.ar    1  UNL1        0.0106
     26  C20        0.1290   -0.5410   -0.6750 C.ar    1  UNL1        0.1730
     27  F1        -0.2520    0.7670   -0.7360 F       1  UNL1       -0.2009
     28 H           3.6552    0.7965   -2.3876 H       1  UNL1        0.3006
     29 H           2.1801    0.0096   -2.0517 H       1  UNL1        0.3006
     30 H           4.6552    1.9610   -0.4132 H       1  UNL1        0.0386
     31 H           5.3780    0.3269   -0.5441 H       1  UNL1        0.0386
     32 H           5.4849    1.7763    1.6100 H       1  UNL1        0.0276
     33 H           5.4151   -0.0034    1.5621 H       1  UNL1        0.0276
     34 H           3.2418    1.8980    2.1971 H       1  UNL1        0.0382
     35 H           3.9725    0.6218    3.2031 H       1  UNL1        0.0382
     36 H           1.4112   -4.6795   -0.4301 H       1  UNL1        0.0631
     37 H          -2.5368   -2.3673   -1.3882 H       1  UNL1        0.0378
     38 H          -1.8002   -1.7051   -2.8296 H       1  UNL1        0.0378
     39 H          -3.1549    2.5346   -2.9744 H       1  UNL1        0.1921
     40 H          -4.9128    2.3683    1.2539 H       1  UNL1        0.0625
     41 H          -4.9565    0.6657    2.9812 H       1  UNL1        0.0618
     42 H          -3.8865   -1.4517    2.5923 H       1  UNL1        0.0618
     43 H          -2.7749   -1.9239    0.5312 H       1  UNL1        0.0624
@<TRIPOS>UNITY_ATOM_ATTR
1 1
charge 1
@<TRIPOS>BOND
     1     1     2    2
     2     2     3    1
     3     2     8    1
     4     3     4    1
     5     4     5    1
     6     5     6    1
     7     6     7    2
     8     6     8   am
     9     8     9    1
    10     9    10   ar
    11     9    26   ar
    12    10    11   ar
    13    10    12    1
    14    11    12   ar
    15    12    13   ar
    16    13    14    1
    17    13    26   ar
    18    14    15    1
    19    15    16   ar
    20    15    25   ar
    21    16    17   ar
    22    17    18   ar
    23    18    19    2
    24    18    20   ar
    25    20    21   ar
    26    20    25   ar
    27    21    22   ar
    28    22    23   ar
    29    23    24   ar
    30    24    25   ar
    31    26    27    1
    32     1    28    1
    33     1    29    1
    34     3    30    1
    35     3    31    1
    36     4    32    1
    37     4    33    1
    38     5    34    1
    39     5    35    1
    40    11    36    1
    41    14    37    1
    42    14    38    1
    43    17    39    1
    44    21    40    1
    45    22    41    1
    46    23    42    1
    47    24    43    1
@<TRIPOS>MOLECULE
../data/bude_mols_rdkit_confs2/molecule_85.pdb
 43 47 0 0 0
SMALL
GASTEIGER

@<TRIPOS>ATOM
      1  N1        -2.3150    0.5260   -2.3460 N.2     1  UNL1       -0.2917
      2  C1        -2.9990    0.8230   -1.3140 C.2     1  UNL1        0.2504
      3  C2        -4.3250    1.4950   -1.5260 C.3     1  UNL1        0.0478
      4  C3        -5.1890    1.1010   -0.3300 C.3     1  UNL1       -0.0318
      5  C4        -4.5970    1.7400    0.9150 C.3     1  UNL1        0.0484
      6  C5        -3.1520    1.3060    1.0390 C.2     1  UNL1        0.3083
      7  O1        -2.4980    1.6090    2.0390 O.2     1  UNL1       -0.2471
      8  N2        -2.5540    0.5330   -0.0200 N.am    1  UNL1       -0.1261
      9  C6        -1.6040   -0.4770    0.3020 C.ar    1  UNL1        0.1718
     10  C7        -1.9650   -1.6680    0.9570 C.ar    1  UNL1        0.0312
     11  C8        -1.9930   -2.9330    1.5930 C.ar    1  UNL1       -0.0418
     12  C9        -0.7700   -2.4470    1.1410 C.ar    1  UNL1       -0.0068
     13  C10        0.2880   -1.7190    0.5990 C.ar    1  UNL1        0.0055
     14  C11        1.6460   -2.2860    0.6490 C.3     1  UNL1        0.0205
     15  C12        2.6830   -1.6100   -0.1070 C.ar    1  UNL1        0.0737
     16  N3         3.0750   -2.0850   -1.3180 N.ar    1  UNL1       -0.1750
     17  N4         4.0170   -1.5370   -2.0580 N.ar    1  UNL1       -0.2425
     18  C13        4.6840   -0.4330   -1.6630 C.ar    1  UNL1        0.2725
     19  O2         5.5860    0.1030   -2.3560 O.2     1  UNL1       -0.2658
     20  C14        4.3330    0.1050   -0.4330 C.ar    1  UNL1        0.0496
     21  C15        5.0050    1.2420    0.0310 C.ar    1  UNL1       -0.0487
     22  C16        4.6810    1.7890    1.2580 C.ar    1  UNL1       -0.0610
     23  C17        3.6830    1.1790    1.9990 C.ar    1  UNL1       -0.0611
     24  C18        3.0090    0.0550    1.5550 C.ar    1  UNL1       -0.0521
     25  C19        3.3460   -0.4750    0.3310 C.ar    1  UNL1        0.0106
     26  C20       -0.2500   -0.5660    0.1150 C.ar    1  UNL1        0.1730
     27  F1         0.5290    0.3950   -0.4770 F       1  UNL1       -0.2009
     28 H          -2.6572    0.7442   -3.2429 H       1  UNL1        0.3006
     29 H          -1.4439    0.0782   -2.2470 H       1  UNL1        0.3006
     30 H          -4.7729    1.1559   -2.4367 H       1  UNL1        0.0386
     31 H          -4.2198    2.5571   -1.6021 H       1  UNL1        0.0386
     32 H          -5.1950    0.0364   -0.2227 H       1  UNL1        0.0276
     33 H          -6.1948    1.4361   -0.4746 H       1  UNL1        0.0276
     34 H          -5.1441    1.4228    1.7781 H       1  UNL1        0.0382
     35 H          -4.6539    2.8060    0.8415 H       1  UNL1        0.0382
     36 H          -2.5329   -3.6795    2.0580 H       1  UNL1        0.0631
     37 H           1.5874   -3.2905    0.2850 H       1  UNL1        0.0378
     38 H           1.9453   -2.1859    1.6714 H       1  UNL1        0.0378
     39 H           4.2409   -1.9454   -2.9253 H       1  UNL1        0.1921
     40 H           5.7448    1.6731   -0.5451 H       1  UNL1        0.0625
     41 H           5.1684    2.6272    1.6115 H       1  UNL1        0.0618
     42 H           3.4323    1.5777    2.9173 H       1  UNL1        0.0618
     43 H           2.2689   -0.3768    2.1301 H       1  UNL1        0.0624
@<TRIPOS>UNITY_ATOM_ATTR
1 1
charge 1
@<TRIPOS>BOND
     1     1     2    2
     2     2     3    1
     3     2     8    1
     4     3     4    1
     5     4     5    1
     6     5     6    1
     7     6     7    2
     8     6     8   am
     9     8     9    1
    10     9    10   ar
    11     9    26   ar
    12    10    11   ar
    13    10    12    1
    14    11    12   ar
    15    12    13   ar
    16    13    14    1
    17    13    26   ar
    18    14    15    1
    19    15    16   ar
    20    15    25   ar
    21    16    17   ar
    22    17    18   ar
    23    18    19    2
    24    18    20   ar
    25    20    21   ar
    26    20    25   ar
    27    21    22   ar
    28    22    23   ar
    29    23    24   ar
    30    24    25   ar
    31    26    27    1
    32     1    28    1
    33     1    29    1
    34     3    30    1
    35     3    31    1
    36     4    32    1
    37     4    33    1
    38     5    34    1
    39     5    35    1
    40    11    36    1
    41    14    37    1
    42    14    38    1
    43    17    39    1
    44    21    40    1
    45    22    41    1
    46    23    42    1
    47    24    43    1
@<TRIPOS>MOLECULE
../data/bude_mols_rdkit_confs2/molecule_85.pdb
 43 47 0 0 0
SMALL
GASTEIGER

@<TRIPOS>ATOM
      1  N1         3.1270    1.2540   -2.4900 N.2     1  UNL1       -0.2917
      2  C1         3.5260    0.5050   -1.5320 C.2     1  UNL1        0.2504
      3  C2         5.0150    0.3020   -1.4010 C.3     1  UNL1        0.0478
      4  C3         5.2550   -0.7550   -0.3330 C.3     1  UNL1       -0.0318
      5  C4         4.3090   -1.9380   -0.5200 C.3     1  UNL1        0.0484
      6  C5         2.9290   -1.4620   -0.2490 C.2     1  UNL1        0.3083
      7  O1         2.0490   -2.1840    0.2960 O.2     1  UNL1       -0.2471
      8  N2         2.6260   -0.0980   -0.6460 N.am    1  UNL1       -0.1261
      9  C6         1.4800    0.5100   -0.0830 C.ar    1  UNL1        0.1718
     10  C7         1.4840    0.8770    1.2760 C.ar    1  UNL1        0.0312
     11  C8         1.0970    1.3680    2.5370 C.ar    1  UNL1       -0.0418
     12  C9         0.1740    1.4580    1.5270 C.ar    1  UNL1       -0.0068
     13  C10       -0.5670    1.4280    0.3320 C.ar    1  UNL1        0.0055
     14  C11       -1.9350    1.9830    0.2760 C.3     1  UNL1        0.0205
     15  C12       -2.8820    1.0780    0.9170 C.ar    1  UNL1        0.0737
     16  N3        -3.1810    1.2990    2.2260 N.ar    1  UNL1       -0.1750
     17  N4        -3.9660    0.5420    2.9430 N.ar    1  UNL1       -0.2425
     18  C13       -4.5590   -0.5440    2.4410 C.ar    1  UNL1        0.2725
     19  O2        -5.3100   -1.2950    3.0800 O.2     1  UNL1       -0.2658
     20  C14       -4.2970   -0.8260    1.1090 C.ar    1  UNL1        0.0496
     21  C15       -4.8710   -1.9200    0.4970 C.ar    1  UNL1       -0.0487
     22  C16       -4.6300   -2.2170   -0.8470 C.ar    1  UNL1       -0.0610
     23  C17       -3.7980   -1.3760   -1.5490 C.ar    1  UNL1       -0.0611
     24  C18       -3.2130   -0.2860   -0.9770 C.ar    1  UNL1       -0.0521
     25  C19       -3.4640   -0.0180    0.3530 C.ar    1  UNL1        0.0106
     26  C20        0.2640    0.8510   -0.5880 C.ar    1  UNL1        0.1730
     27  F1        -0.1090    0.6260   -1.8710 F       1  UNL1       -0.2009
     28 H           3.7822    1.6656   -3.0987 H       1  UNL1        0.3006
     29 H           2.1649    1.4185   -2.6183 H       1  UNL1        0.3006
     30 H           5.4825    1.2206   -1.1139 H       1  UNL1        0.0386
     31 H           5.4300   -0.0137   -2.3353 H       1  UNL1        0.0386
     32 H           5.0900   -0.3228    0.6318 H       1  UNL1        0.0276
     33 H           6.2627   -1.1048   -0.4166 H       1  UNL1        0.0276
     34 H           4.5650   -2.7205    0.1634 H       1  UNL1        0.0382
     35 H           4.3832   -2.3225   -1.5158 H       1  UNL1        0.0382
     36 H           1.3381    1.5395    3.5257 H       1  UNL1        0.0631
     37 H          -2.2172    2.1206   -0.7469 H       1  UNL1        0.0378
     38 H          -1.9489    2.9199    0.7927 H       1  UNL1        0.0378
     39 H          -4.1262    0.7795    3.8849 H       1  UNL1        0.1921
     40 H          -5.4936   -2.5343    1.0447 H       1  UNL1        0.0625
     41 H          -5.0614   -3.0391   -1.2975 H       1  UNL1        0.0618
     42 H          -3.6102   -1.5775   -2.5436 H       1  UNL1        0.0618
     43 H          -2.5935    0.3278   -1.5287 H       1  UNL1        0.0624
@<TRIPOS>UNITY_ATOM_ATTR
1 1
charge 1
@<TRIPOS>BOND
     1     1     2    2
     2     2     3    1
     3     2     8    1
     4     3     4    1
     5     4     5    1
     6     5     6    1
     7     6     7    2
     8     6     8   am
     9     8     9    1
    10     9    10   ar
    11     9    26   ar
    12    10    11   ar
    13    10    12    1
    14    11    12   ar
    15    12    13   ar
    16    13    14    1
    17    13    26   ar
    18    14    15    1
    19    15    16   ar
    20    15    25   ar
    21    16    17   ar
    22    17    18   ar
    23    18    19    2
    24    18    20   ar
    25    20    21   ar
    26    20    25   ar
    27    21    22   ar
    28    22    23   ar
    29    23    24   ar
    30    24    25   ar
    31    26    27    1
    32     1    28    1
    33     1    29    1
    34     3    30    1
    35     3    31    1
    36     4    32    1
    37     4    33    1
    38     5    34    1
    39     5    35    1
    40    11    36    1
    41    14    37    1
    42    14    38    1
    43    17    39    1
    44    21    40    1
    45    22    41    1
    46    23    42    1
    47    24    43    1
