@<TRIPOS>MOLECULE
../data/bude_mols_rdkit_confs2/molecule_100.pdb
 55 59 0 0 0
SMALL
GASTEIGER

@<TRIPOS>ATOM
      1  O1        -0.2710    1.9780    1.0190 O.2     1  UNL1       -0.2699
      2  C1        -0.4720    1.0710    0.1740 C.2     1  UNL1        0.2494
      3  C2         0.6160    0.7740   -0.7460 C.ar    1  UNL1        0.0723
      4  C3         1.5520   -0.1750   -0.4120 C.ar    1  UNL1       -0.0433
      5  C4         2.6160   -0.5040   -1.2660 C.ar    1  UNL1       -0.0406
      6  C5         3.5780   -1.5570   -0.8630 C.3     1  UNL1        0.0171
      7  C6         4.5070   -1.1430    0.1760 C.ar    1  UNL1        0.0736
      8  N1         4.1850   -1.4650    1.4670 N.ar    1  UNL1       -0.1750
      9  N2         4.9040   -1.1250    2.5060 N.ar    1  UNL1       -0.2425
     10  C7         6.0470   -0.4150    2.4080 C.ar    1  UNL1        0.2725
     11  O2         6.7540   -0.0740    3.3690 O.2     1  UNL1       -0.2658
     12  C8         6.4340   -0.0560    1.1510 C.ar    1  UNL1        0.0496
     13  C9         7.5850    0.6580    0.9410 C.ar    1  UNL1       -0.0487
     14  C10        7.9820    1.0120   -0.3350 C.ar    1  UNL1       -0.0610
     15  C11        7.2270    0.6530   -1.4310 C.ar    1  UNL1       -0.0611
     16  C12        6.0500   -0.0760   -1.2380 C.ar    1  UNL1       -0.0521
     17  C13        5.6670   -0.4190    0.0400 C.ar    1  UNL1        0.0106
     18  C14        2.6620    0.1780   -2.4480 C.ar    1  UNL1       -0.0555
     19  C15        1.7040    1.1470   -2.7840 C.ar    1  UNL1       -0.0254
     20  C16        0.6820    1.4420   -1.9290 C.ar    1  UNL1        0.1355
     21  F1        -0.2080    2.3880   -2.3160 F       1  UNL1       -0.2047
     22  N3        -1.7080    0.3710    0.1250 N.am    1  UNL1       -0.2959
     23  C17       -2.9220    0.4650    0.9100 C.3     1  UNL1        0.0276
     24  C18       -3.5260   -0.6410    0.0710 C.3     1  UNL1        0.0671
     25  C19       -4.7330   -0.2500   -0.6870 C.2     1  UNL1        0.2217
     26  O3        -4.6800   -0.2670   -1.9430 O.2     1  UNL1       -0.2752
     27  N4        -5.9110    0.1320   -0.0380 N.am    1  UNL1       -0.3012
     28  C20       -6.1880    0.2120    1.3860 C.3     1  UNL1        0.0147
     29  C21       -7.5950   -0.3370    1.4530 C.3     1  UNL1       -0.0357
     30  C22       -8.1400   -0.3560    0.0400 C.3     1  UNL1       -0.0357
     31  C23       -7.1500    0.5390   -0.6770 C.3     1  UNL1        0.0147
     32  C24       -2.2530   -0.6890   -0.7050 C.3     1  UNL1        0.0276
     33 H           1.4700   -0.6608    0.4948 H       1  UNL1        0.0629
     34 H           4.1433   -1.8440   -1.7249 H       1  UNL1        0.0377
     35 H           3.0026   -2.3642   -0.4601 H       1  UNL1        0.0377
     36 H           4.5969   -1.3998    3.4001 H       1  UNL1        0.1921
     37 H           8.1646    0.9358    1.7484 H       1  UNL1        0.0625
     38 H           8.8523    1.5504   -0.4683 H       1  UNL1        0.0618
     39 H           7.5269    0.9190   -2.3820 H       1  UNL1        0.0618
     40 H           5.4726   -0.3550   -2.0465 H       1  UNL1        0.0624
     41 H           3.4237   -0.0251   -3.1140 H       1  UNL1        0.0621
     42 H           1.7731    1.6417   -3.6871 H       1  UNL1        0.0646
     43 H          -3.4269    1.4048    0.8281 H       1  UNL1        0.0472
     44 H          -2.8921    0.3896    1.9769 H       1  UNL1        0.0472
     45 H          -3.9278   -1.5289    0.5126 H       1  UNL1        0.0425
     46 H          -6.1460    1.2223    1.7358 H       1  UNL1        0.0464
     47 H          -5.4853   -0.3155    1.9966 H       1  UNL1        0.0464
     48 H          -8.2032    0.2895    2.0715 H       1  UNL1        0.0281
     49 H          -7.5975   -1.3212    1.8728 H       1  UNL1        0.0281
     50 H          -9.1312    0.0448   -0.0022 H       1  UNL1        0.0281
     51 H          -8.2271   -1.3358   -0.3811 H       1  UNL1        0.0281
     52 H          -7.1334    0.3457   -1.7293 H       1  UNL1        0.0464
     53 H          -7.3640    1.5850   -0.6072 H       1  UNL1        0.0464
     54 H          -1.7285   -1.6184   -0.6271 H       1  UNL1        0.0472
     55 H          -2.2640   -0.5915   -1.7705 H       1  UNL1        0.0472
@<TRIPOS>BOND
     1     1     2    2
     2     2     3    1
     3     2    22   am
     4     3     4   ar
     5     3    20   ar
     6     4     5   ar
     7     5     6    1
     8     5    18   ar
     9     6     7    1
    10     7     8   ar
    11     7    17   ar
    12     8     9   ar
    13     9    10   ar
    14    10    11    2
    15    10    12   ar
    16    12    13   ar
    17    12    17   ar
    18    13    14   ar
    19    14    15   ar
    20    15    16   ar
    21    16    17   ar
    22    18    19   ar
    23    19    20   ar
    24    20    21    1
    25    22    23    1
    26    22    32    1
    27    23    24    1
    28    24    25    1
    29    24    32    1
    30    25    26    2
    31    25    27   am
    32    27    28    1
    33    27    31    1
    34    28    29    1
    35    29    30    1
    36    30    31    1
    37     4    33    1
    38     6    34    1
    39     6    35    1
    40     9    36    1
    41    13    37    1
    42    14    38    1
    43    15    39    1
    44    16    40    1
    45    18    41    1
    46    19    42    1
    47    23    43    1
    48    23    44    1
    49    24    45    1
    50    28    46    1
    51    28    47    1
    52    29    48    1
    53    29    49    1
    54    30    50    1
    55    30    51    1
    56    31    52    1
    57    31    53    1
    58    32    54    1
    59    32    55    1
@<TRIPOS>MOLECULE
../data/bude_mols_rdkit_confs2/molecule_100.pdb
 55 59 0 0 0
SMALL
GASTEIGER

@<TRIPOS>ATOM
      1  O1        -0.5640    0.9570   -2.3600 O.2     1  UNL1       -0.2699
      2  C1        -0.7800    0.7090   -1.1490 C.2     1  UNL1        0.2494
      3  C2         0.1140   -0.2530   -0.5000 C.ar    1  UNL1        0.0723
      4  C3         1.2690    0.1690    0.1210 C.ar    1  UNL1       -0.0433
      5  C4         2.1500   -0.7280    0.7520 C.ar    1  UNL1       -0.0406
      6  C5         3.3690   -0.2260    1.4300 C.3     1  UNL1        0.0171
      7  C6         4.4420    0.2050    0.5160 C.ar    1  UNL1        0.0736
      8  N1         4.5320    1.5410    0.2150 N.ar    1  UNL1       -0.1750
      9  N2         5.4280    2.0260   -0.6220 N.ar    1  UNL1       -0.2425
     10  C7         6.3280    1.2660   -1.2520 C.ar    1  UNL1        0.2725
     11  O2         7.1840    1.7220   -2.0510 O.2     1  UNL1       -0.2658
     12  C8         6.3040   -0.1040   -0.9990 C.ar    1  UNL1        0.0496
     13  C9         7.2260   -0.9240   -1.6230 C.ar    1  UNL1       -0.0487
     14  C10        7.1650   -2.2680   -1.3290 C.ar    1  UNL1       -0.0610
     15  C11        6.2400   -2.7930   -0.4580 C.ar    1  UNL1       -0.0611
     16  C12        5.3350   -1.9400    0.1460 C.ar    1  UNL1       -0.0521
     17  C13        5.3550   -0.5980   -0.1150 C.ar    1  UNL1        0.0106
     18  C14        1.7860   -2.0490    0.7080 C.ar    1  UNL1       -0.0555
     19  C15        0.6210   -2.4980    0.0850 C.ar    1  UNL1       -0.0254
     20  C16       -0.2160   -1.5810   -0.5220 C.ar    1  UNL1        0.1355
     21  F1        -1.3670   -1.9580   -1.1460 F       1  UNL1       -0.2047
     22  N3        -1.8390    1.3410   -0.4730 N.am    1  UNL1       -0.2959
     23  C17       -2.8540    2.3080   -0.8370 C.3     1  UNL1        0.0276
     24  C18       -3.3040    2.3950    0.6070 C.3     1  UNL1        0.0671
     25  C19       -4.7220    2.1640    0.8560 C.2     1  UNL1        0.2217
     26  O3        -5.3170    3.0570    1.5760 O.2     1  UNL1       -0.2752
     27  N4        -5.5190    1.1030    0.4180 N.am    1  UNL1       -0.3012
     28  C20       -6.9300    0.9320    0.7150 C.3     1  UNL1        0.0147
     29  C21       -7.0430   -0.5530    0.9400 C.3     1  UNL1       -0.0357
     30  C22       -5.7510   -1.1620    0.4520 C.3     1  UNL1       -0.0357
     31  C23       -5.1730   -0.0140   -0.4020 C.3     1  UNL1        0.0147
     32  C24       -2.3530    1.2800    0.8820 C.3     1  UNL1        0.0276
     33 H           1.4953    1.1759    0.1234 H       1  UNL1        0.0629
     34 H           3.7527   -1.0086    2.0507 H       1  UNL1        0.0377
     35 H           3.0745    0.6405    1.9843 H       1  UNL1        0.0377
     36 H           5.4340    2.9959   -0.7909 H       1  UNL1        0.1921
     37 H           7.9276   -0.5462   -2.2789 H       1  UNL1        0.0625
     38 H           7.8397   -2.9056   -1.7799 H       1  UNL1        0.0618
     39 H           6.2215   -3.8054   -0.2586 H       1  UNL1        0.0618
     40 H           4.6355   -2.3210    0.8022 H       1  UNL1        0.0624
     41 H           2.4027   -2.7441    1.1568 H       1  UNL1        0.0621
     42 H           0.3871   -3.5031    0.0776 H       1  UNL1        0.0646
     43 H          -3.5996    1.9267   -1.5031 H       1  UNL1        0.0472
     44 H          -2.5850    3.1952   -1.3712 H       1  UNL1        0.0472
     45 H          -3.2685    3.3037    1.1708 H       1  UNL1        0.0425
     46 H          -7.5382    1.2450   -0.1078 H       1  UNL1        0.0464
     47 H          -7.2622    1.5144    1.5489 H       1  UNL1        0.0464
     48 H          -7.8695   -0.9484    0.3874 H       1  UNL1        0.0281
     49 H          -7.2086   -0.7755    1.9734 H       1  UNL1        0.0281
     50 H          -5.9295   -2.0365   -0.1381 H       1  UNL1        0.0281
     51 H          -5.1014   -1.4928    1.2353 H       1  UNL1        0.0281
     52 H          -4.1138   -0.1042   -0.5240 H       1  UNL1        0.0464
     53 H          -5.5423    0.0316   -1.4052 H       1  UNL1        0.0464
     54 H          -1.6241    1.5088    1.6312 H       1  UNL1        0.0472
     55 H          -2.7206    0.3525    1.2687 H       1  UNL1        0.0472
@<TRIPOS>BOND
     1     1     2    2
     2     2     3    1
     3     2    22   am
     4     3     4   ar
     5     3    20   ar
     6     4     5   ar
     7     5     6    1
     8     5    18   ar
     9     6     7    1
    10     7     8   ar
    11     7    17   ar
    12     8     9   ar
    13     9    10   ar
    14    10    11    2
    15    10    12   ar
    16    12    13   ar
    17    12    17   ar
    18    13    14   ar
    19    14    15   ar
    20    15    16   ar
    21    16    17   ar
    22    18    19   ar
    23    19    20   ar
    24    20    21    1
    25    22    23    1
    26    22    32    1
    27    23    24    1
    28    24    25    1
    29    24    32    1
    30    25    26    2
    31    25    27   am
    32    27    28    1
    33    27    31    1
    34    28    29    1
    35    29    30    1
    36    30    31    1
    37     4    33    1
    38     6    34    1
    39     6    35    1
    40     9    36    1
    41    13    37    1
    42    14    38    1
    43    15    39    1
    44    16    40    1
    45    18    41    1
    46    19    42    1
    47    23    43    1
    48    23    44    1
    49    24    45    1
    50    28    46    1
    51    28    47    1
    52    29    48    1
    53    29    49    1
    54    30    50    1
    55    30    51    1
    56    31    52    1
    57    31    53    1
    58    32    54    1
    59    32    55    1
@<TRIPOS>MOLECULE
../data/bude_mols_rdkit_confs2/molecule_100.pdb
 55 59 0 0 0
SMALL
GASTEIGER

@<TRIPOS>ATOM
      1  O1        -0.6190    0.7390   -3.0760 O.2     1  UNL1       -0.2699
      2  C1        -0.6400    0.5910   -1.8280 C.2     1  UNL1        0.2494
      3  C2         0.5890    0.7720   -1.0710 C.ar    1  UNL1        0.0723
      4  C3         1.4160   -0.3280   -0.8560 C.ar    1  UNL1       -0.0433
      5  C4         2.5930   -0.2090   -0.1440 C.ar    1  UNL1       -0.0406
      6  C5         3.4750   -1.4070    0.0850 C.3     1  UNL1        0.0171
      7  C6         4.6230   -1.0870    0.9320 C.ar    1  UNL1        0.0736
      8  N1         4.6150   -1.4550    2.2270 N.ar    1  UNL1       -0.1750
      9  N2         5.6050   -1.2010    3.0570 N.ar    1  UNL1       -0.2425
     10  C7         6.7060   -0.5500    2.6680 C.ar    1  UNL1        0.2725
     11  O2         7.6300   -0.3180    3.4600 O.2     1  UNL1       -0.2658
     12  C8         6.8140   -0.1280    1.3570 C.ar    1  UNL1        0.0496
     13  C9         7.9060    0.5470    0.8560 C.ar    1  UNL1       -0.0487
     14  C10        7.9850    0.9560   -0.4690 C.ar    1  UNL1       -0.0610
     15  C11        6.9060    0.6500   -1.2710 C.ar    1  UNL1       -0.0611
     16  C12        5.7940   -0.0220   -0.8180 C.ar    1  UNL1       -0.0521
     17  C13        5.7450   -0.4130    0.5000 C.ar    1  UNL1        0.0106
     18  C14        2.9140    1.0400    0.3430 C.ar    1  UNL1       -0.0555
     19  C15        2.0850    2.1480    0.1290 C.ar    1  UNL1       -0.0254
     20  C16        0.9170    2.0180   -0.5800 C.ar    1  UNL1        0.1355
     21  F1         0.0570    3.0320   -0.8360 F       1  UNL1       -0.2047
     22  N3        -1.8620    0.2550   -1.2190 N.am    1  UNL1       -0.2959
     23  C17       -2.2310    0.0140    0.1790 C.3     1  UNL1        0.0276
     24  C18       -3.6770    0.3410   -0.1370 C.3     1  UNL1        0.0671
     25  C19       -4.6540   -0.6030    0.4600 C.2     1  UNL1        0.2217
     26  O3        -4.2110   -1.5470    1.1420 O.2     1  UNL1       -0.2752
     27  N4        -6.0280   -0.4110    0.2470 N.am    1  UNL1       -0.3012
     28  C20       -6.6510    0.6540   -0.5300 C.3     1  UNL1        0.0147
     29  C21       -8.1080    0.2760   -0.6640 C.3     1  UNL1       -0.0357
     30  C22       -8.1470   -1.2040   -0.2840 C.3     1  UNL1       -0.0357
     31  C23       -7.0700   -1.2510    0.7680 C.3     1  UNL1        0.0147
     32  C24       -3.2400   -0.0070   -1.5460 C.3     1  UNL1        0.0276
     33 H           1.1442   -1.2483   -1.2356 H       1  UNL1        0.0629
     34 H           3.8307   -1.7600   -0.8604 H       1  UNL1        0.0377
     35 H           2.8944   -2.1549    0.5834 H       1  UNL1        0.0377
     36 H           5.5323   -1.4995    3.9923 H       1  UNL1        0.1921
     37 H           8.6941    0.7563    1.4886 H       1  UNL1        0.0625
     38 H           8.8073    1.4618   -0.8337 H       1  UNL1        0.0618
     39 H           6.9338    0.9396   -2.2611 H       1  UNL1        0.0618
     40 H           5.0100   -0.2292   -1.4563 H       1  UNL1        0.0624
     41 H           3.7875    1.1615    0.8789 H       1  UNL1        0.0621
     42 H           2.3544    3.0696    0.5073 H       1  UNL1        0.0646
     43 H          -1.7736    0.6882    0.8726 H       1  UNL1        0.0472
     44 H          -1.9790   -0.9128    0.6505 H       1  UNL1        0.0472
     45 H          -4.1690    1.2524    0.1317 H       1  UNL1        0.0425
     46 H          -6.1952    0.7249   -1.4955 H       1  UNL1        0.0464
     47 H          -6.5356    1.6050   -0.0535 H       1  UNL1        0.0464
     48 H          -8.4464    0.4190   -1.6690 H       1  UNL1        0.0281
     49 H          -8.7455    0.8747   -0.0475 H       1  UNL1        0.0281
     50 H          -7.9111   -1.8315   -1.1180 H       1  UNL1        0.0281
     51 H          -9.1037   -1.5531    0.0442 H       1  UNL1        0.0281
     52 H          -7.4334   -0.8704    1.6997 H       1  UNL1        0.0464
     53 H          -6.7325   -2.2474    0.9633 H       1  UNL1        0.0464
     54 H          -3.4332   -1.0233   -1.8194 H       1  UNL1        0.0472
     55 H          -3.6910    0.4906   -2.3790 H       1  UNL1        0.0472
@<TRIPOS>BOND
     1     1     2    2
     2     2     3    1
     3     2    22   am
     4     3     4   ar
     5     3    20   ar
     6     4     5   ar
     7     5     6    1
     8     5    18   ar
     9     6     7    1
    10     7     8   ar
    11     7    17   ar
    12     8     9   ar
    13     9    10   ar
    14    10    11    2
    15    10    12   ar
    16    12    13   ar
    17    12    17   ar
    18    13    14   ar
    19    14    15   ar
    20    15    16   ar
    21    16    17   ar
    22    18    19   ar
    23    19    20   ar
    24    20    21    1
    25    22    23    1
    26    22    32    1
    27    23    24    1
    28    24    25    1
    29    24    32    1
    30    25    26    2
    31    25    27   am
    32    27    28    1
    33    27    31    1
    34    28    29    1
    35    29    30    1
    36    30    31    1
    37     4    33    1
    38     6    34    1
    39     6    35    1
    40     9    36    1
    41    13    37    1
    42    14    38    1
    43    15    39    1
    44    16    40    1
    45    18    41    1
    46    19    42    1
    47    23    43    1
    48    23    44    1
    49    24    45    1
    50    28    46    1
    51    28    47    1
    52    29    48    1
    53    29    49    1
    54    30    50    1
    55    30    51    1
    56    31    52    1
    57    31    53    1
    58    32    54    1
    59    32    55    1
@<TRIPOS>MOLECULE
../data/bude_mols_rdkit_confs2/molecule_100.pdb
 55 59 0 0 0
SMALL
GASTEIGER

@<TRIPOS>ATOM
      1  O1        -1.4280    0.0470    3.5710 O.2     1  UNL1       -0.2699
      2  C1        -0.9150    0.1760    2.4360 C.2     1  UNL1        0.2494
      3  C2         0.3570    0.9010    2.2440 C.ar    1  UNL1        0.0723
      4  C3         1.5480    0.2140    2.3120 C.ar    1  UNL1       -0.0433
      5  C4         2.7800    0.8710    2.1420 C.ar    1  UNL1       -0.0406
      6  C5         4.0260    0.0570    2.2470 C.3     1  UNL1        0.0171
      7  C6         4.2990   -0.7810    1.0780 C.ar    1  UNL1        0.0736
      8  N1         3.8920   -2.0880    1.0400 N.ar    1  UNL1       -0.1750
      9  N2         4.0710   -2.8530   -0.0160 N.ar    1  UNL1       -0.2425
     10  C7         4.6640   -2.4110   -1.1270 C.ar    1  UNL1        0.2725
     11  O2         4.8370   -3.1460   -2.1460 O.2     1  UNL1       -0.2658
     12  C8         5.1090   -1.1080   -1.1770 C.ar    1  UNL1        0.0496
     13  C9         5.7430   -0.6160   -2.3050 C.ar    1  UNL1       -0.0487
     14  C10        6.2090    0.6750   -2.3680 C.ar    1  UNL1       -0.0610
     15  C11        6.0200    1.4750   -1.2520 C.ar    1  UNL1       -0.0611
     16  C12        5.3910    0.9920   -0.1320 C.ar    1  UNL1       -0.0521
     17  C13        4.9160   -0.3040   -0.0550 C.ar    1  UNL1        0.0106
     18  C14        2.7120    2.2140    1.9100 C.ar    1  UNL1       -0.0555
     19  C15        1.5020    2.9210    1.8380 C.ar    1  UNL1       -0.0254
     20  C16        0.3070    2.2610    2.0070 C.ar    1  UNL1        0.1355
     21  F1        -0.8650    2.9060    1.9440 F       1  UNL1       -0.2047
     22  N3        -1.5310   -0.3650    1.2870 N.am    1  UNL1       -0.2959
     23  C17       -1.2700   -0.4330   -0.1460 C.3     1  UNL1        0.0276
     24  C18       -2.7120   -0.8500   -0.3800 C.3     1  UNL1        0.0671
     25  C19       -3.5980    0.2800   -0.7510 C.2     1  UNL1        0.2217
     26  O3        -3.0800    1.4230   -0.9010 O.2     1  UNL1       -0.2752
     27  N4        -4.9840    0.0970   -0.9350 N.am    1  UNL1       -0.3012
     28  C20       -5.9420    1.1080   -1.3030 C.3     1  UNL1        0.0147
     29  C21       -7.2080    0.3930   -1.6810 C.3     1  UNL1       -0.0357
     30  C22       -6.7380   -1.0500   -1.9000 C.3     1  UNL1       -0.0357
     31  C23       -5.6970   -1.1470   -0.7810 C.3     1  UNL1        0.0147
     32  C24       -2.7670   -1.1250    1.0870 C.3     1  UNL1        0.0276
     33 H           1.5367   -0.8023    2.4911 H       1  UNL1        0.0629
     34 H           3.9392   -0.5796    3.1026 H       1  UNL1        0.0377
     35 H           4.8383    0.7491    2.3240 H       1  UNL1        0.0377
     36 H           3.7560   -3.7852    0.0148 H       1  UNL1        0.1921
     37 H           5.8690   -1.2356   -3.1206 H       1  UNL1        0.0625
     38 H           6.6808    1.0346   -3.2124 H       1  UNL1        0.0618
     39 H           6.3579    2.4500   -1.2635 H       1  UNL1        0.0618
     40 H           5.2685    1.6172    0.6799 H       1  UNL1        0.0624
     41 H           3.5934    2.7351    1.7812 H       1  UNL1        0.0621
     42 H           1.5087    3.9372    1.6581 H       1  UNL1        0.0646
     43 H          -0.5492   -1.1728   -0.4254 H       1  UNL1        0.0472
     44 H          -0.8551    0.4062   -0.6642 H       1  UNL1        0.0472
     45 H          -2.9775   -1.5686   -1.1270 H       1  UNL1        0.0425
     46 H          -5.5776    1.6751   -2.1340 H       1  UNL1        0.0464
     47 H          -6.1126    1.7866   -0.4935 H       1  UNL1        0.0464
     48 H          -7.6271    0.8010   -2.5770 H       1  UNL1        0.0281
     49 H          -7.9768    0.4781   -0.9416 H       1  UNL1        0.0281
     50 H          -6.2993   -1.1849   -2.8666 H       1  UNL1        0.0281
     51 H          -7.5097   -1.7906   -1.8706 H       1  UNL1        0.0281
     52 H          -6.1627   -1.2131    0.1801 H       1  UNL1        0.0464
     53 H          -5.0739   -2.0147   -0.8420 H       1  UNL1        0.0464
     54 H          -3.6204   -0.7047    1.5769 H       1  UNL1        0.0472
     55 H          -2.8433   -2.1311    1.4431 H       1  UNL1        0.0472
@<TRIPOS>BOND
     1     1     2    2
     2     2     3    1
     3     2    22   am
     4     3     4   ar
     5     3    20   ar
     6     4     5   ar
     7     5     6    1
     8     5    18   ar
     9     6     7    1
    10     7     8   ar
    11     7    17   ar
    12     8     9   ar
    13     9    10   ar
    14    10    11    2
    15    10    12   ar
    16    12    13   ar
    17    12    17   ar
    18    13    14   ar
    19    14    15   ar
    20    15    16   ar
    21    16    17   ar
    22    18    19   ar
    23    19    20   ar
    24    20    21    1
    25    22    23    1
    26    22    32    1
    27    23    24    1
    28    24    25    1
    29    24    32    1
    30    25    26    2
    31    25    27   am
    32    27    28    1
    33    27    31    1
    34    28    29    1
    35    29    30    1
    36    30    31    1
    37     4    33    1
    38     6    34    1
    39     6    35    1
    40     9    36    1
    41    13    37    1
    42    14    38    1
    43    15    39    1
    44    16    40    1
    45    18    41    1
    46    19    42    1
    47    23    43    1
    48    23    44    1
    49    24    45    1
    50    28    46    1
    51    28    47    1
    52    29    48    1
    53    29    49    1
    54    30    50    1
    55    30    51    1
    56    31    52    1
    57    31    53    1
    58    32    54    1
    59    32    55    1
@<TRIPOS>MOLECULE
../data/bude_mols_rdkit_confs2/molecule_100.pdb
 55 59 0 0 0
SMALL
GASTEIGER

@<TRIPOS>ATOM
      1  O1        -0.0020    2.3550    2.6530 O.2     1  UNL1       -0.2699
      2  C1         0.4820    1.4060    1.9620 C.2     1  UNL1        0.2494
      3  C2        -0.2910    0.1870    1.7880 C.ar    1  UNL1        0.0723
      4  C3        -1.1910    0.0360    0.7540 C.ar    1  UNL1       -0.0433
      5  C4        -1.8940   -1.1260    0.6400 C.ar    1  UNL1       -0.0406
      6  C5        -2.8900   -1.3460   -0.4620 C.3     1  UNL1        0.0171
      7  C6        -4.2080   -0.8910   -0.0020 C.ar    1  UNL1        0.0736
      8  N1        -4.4880   -0.9220    1.3230 N.ar    1  UNL1       -0.1750
      9  N2        -5.6540   -0.5170    1.8110 N.ar    1  UNL1       -0.2425
     10  C7        -6.6220   -0.0490    0.9890 C.ar    1  UNL1        0.2725
     11  O2        -7.7390    0.3410    1.4480 O.2     1  UNL1       -0.2658
     12  C8        -6.4180    0.0170   -0.3790 C.ar    1  UNL1        0.0496
     13  C9        -7.4160    0.4850   -1.2070 C.ar    1  UNL1       -0.0487
     14  C10       -7.1950    0.5310   -2.5740 C.ar    1  UNL1       -0.0610
     15  C11       -5.9740    0.1000   -3.0360 C.ar    1  UNL1       -0.0611
     16  C12       -4.9760   -0.3670   -2.2110 C.ar    1  UNL1       -0.0521
     17  C13       -5.1790   -0.4200   -0.8440 C.ar    1  UNL1        0.0106
     18  C14       -1.7250   -2.1500    1.5340 C.ar    1  UNL1       -0.0555
     19  C15       -0.8320   -2.0140    2.5680 C.ar    1  UNL1       -0.0254
     20  C16       -0.1180   -0.8380    2.6870 C.ar    1  UNL1        0.1355
     21  F1         0.7540   -0.7400    3.7210 F       1  UNL1       -0.2047
     22  N3         1.7510    1.4970    1.3550 N.am    1  UNL1       -0.2959
     23  C17        2.5710    0.6370    0.5420 C.3     1  UNL1        0.0276
     24  C18        3.1850    1.8560   -0.0810 C.3     1  UNL1        0.0671
     25  C19        4.6410    1.7760   -0.2140 C.2     1  UNL1        0.2217
     26  O3         5.2880    2.7470    0.3210 O.2     1  UNL1       -0.2752
     27  N4         5.3950    0.7820   -0.8460 N.am    1  UNL1       -0.3012
     28  C20        5.0000   -0.4420   -1.5440 C.3     1  UNL1        0.0147
     29  C21        5.8720   -1.4490   -0.7950 C.3     1  UNL1       -0.0357
     30  C22        7.2110   -0.7210   -0.8070 C.3     1  UNL1       -0.0357
     31  C23        6.8650    0.7500   -0.9430 C.3     1  UNL1        0.0147
     32  C24        2.7960    2.4880    1.2640 C.3     1  UNL1        0.0276
     33 H          -1.3311    0.7973    0.0715 H       1  UNL1        0.0629
     34 H          -2.9332   -2.3869   -0.7059 H       1  UNL1        0.0377
     35 H          -2.5979   -0.7971   -1.3328 H       1  UNL1        0.0377
     36 H          -5.8164   -0.5575    2.7812 H       1  UNL1        0.1921
     37 H          -8.3173    0.7975   -0.8132 H       1  UNL1        0.0625
     38 H          -7.9205    0.8762   -3.2218 H       1  UNL1        0.0618
     39 H          -5.7968    0.1280   -4.0523 H       1  UNL1        0.0618
     40 H          -4.0772   -0.6773   -2.6121 H       1  UNL1        0.0624
     41 H          -2.2677   -3.0217    1.4306 H       1  UNL1        0.0621
     42 H          -0.6963   -2.7796    3.2465 H       1  UNL1        0.0646
     43 H           2.0228    0.0218   -0.1406 H       1  UNL1        0.0472
     44 H           3.1819   -0.1212    0.9857 H       1  UNL1        0.0472
     45 H           2.9171    2.2238   -1.0494 H       1  UNL1        0.0425
     46 H           5.2399   -0.4029   -2.5860 H       1  UNL1        0.0464
     47 H           3.9510   -0.6529   -1.5374 H       1  UNL1        0.0464
     48 H           5.9266   -2.3848   -1.3110 H       1  UNL1        0.0281
     49 H           5.5151   -1.7095    0.1795 H       1  UNL1        0.0281
     50 H           7.8061   -1.0443   -1.6354 H       1  UNL1        0.0281
     51 H           7.7799   -0.9171    0.0777 H       1  UNL1        0.0281
     52 H           7.3105    1.3198   -0.1545 H       1  UNL1        0.0464
     53 H           7.2264    1.1749   -1.8561 H       1  UNL1        0.0464
     54 H           3.5458    2.4170    2.0240 H       1  UNL1        0.0472
     55 H           2.5896    3.5339    1.3558 H       1  UNL1        0.0472
@<TRIPOS>BOND
     1     1     2    2
     2     2     3    1
     3     2    22   am
     4     3     4   ar
     5     3    20   ar
     6     4     5   ar
     7     5     6    1
     8     5    18   ar
     9     6     7    1
    10     7     8   ar
    11     7    17   ar
    12     8     9   ar
    13     9    10   ar
    14    10    11    2
    15    10    12   ar
    16    12    13   ar
    17    12    17   ar
    18    13    14   ar
    19    14    15   ar
    20    15    16   ar
    21    16    17   ar
    22    18    19   ar
    23    19    20   ar
    24    20    21    1
    25    22    23    1
    26    22    32    1
    27    23    24    1
    28    24    25    1
    29    24    32    1
    30    25    26    2
    31    25    27   am
    32    27    28    1
    33    27    31    1
    34    28    29    1
    35    29    30    1
    36    30    31    1
    37     4    33    1
    38     6    34    1
    39     6    35    1
    40     9    36    1
    41    13    37    1
    42    14    38    1
    43    15    39    1
    44    16    40    1
    45    18    41    1
    46    19    42    1
    47    23    43    1
    48    23    44    1
    49    24    45    1
    50    28    46    1
    51    28    47    1
    52    29    48    1
    53    29    49    1
    54    30    50    1
    55    30    51    1
    56    31    52    1
    57    31    53    1
    58    32    54    1
    59    32    55    1
@<TRIPOS>MOLECULE
../data/bude_mols_rdkit_confs2/molecule_100.pdb
 55 59 0 0 0
SMALL
GASTEIGER

@<TRIPOS>ATOM
      1  O1         1.4640    0.5920   -3.3300 O.2     1  UNL1       -0.2699
      2  C1         0.9630    0.1330   -2.2480 C.2     1  UNL1        0.2494
      3  C2        -0.3280   -0.5200   -2.3980 C.ar    1  UNL1        0.0723
      4  C3        -1.5300    0.1520   -2.2980 C.ar    1  UNL1       -0.0433
      5  C4        -2.7380   -0.5140   -2.4570 C.ar    1  UNL1       -0.0406
      6  C5        -3.9870    0.2490   -2.3730 C.3     1  UNL1        0.0171
      7  C6        -4.3840    0.6820   -1.0260 C.ar    1  UNL1        0.0736
      8  N1        -4.0400    1.9230   -0.6170 N.ar    1  UNL1       -0.1750
      9  N2        -4.3130    2.3880    0.5830 N.ar    1  UNL1       -0.2425
     10  C7        -4.9690    1.6370    1.5050 C.ar    1  UNL1        0.2725
     11  O2        -5.2040    2.1340    2.6440 O.2     1  UNL1       -0.2658
     12  C8        -5.3510    0.3620    1.1570 C.ar    1  UNL1        0.0496
     13  C9        -6.0280   -0.3920    2.0820 C.ar    1  UNL1       -0.0487
     14  C10       -6.4350   -1.6720    1.7380 C.ar    1  UNL1       -0.0610
     15  C11       -6.1370   -2.1330    0.4710 C.ar    1  UNL1       -0.0611
     16  C12       -5.4550   -1.3770   -0.4640 C.ar    1  UNL1       -0.0521
     17  C13       -5.0460   -0.1040   -0.1300 C.ar    1  UNL1        0.0106
     18  C14       -2.7110   -1.8460   -2.7140 C.ar    1  UNL1       -0.0555
     19  C15       -1.5070   -2.5240   -2.8140 C.ar    1  UNL1       -0.0254
     20  C16       -0.3300   -1.8780   -2.6600 C.ar    1  UNL1        0.1355
     21  F1         0.8570   -2.5680   -2.7630 F       1  UNL1       -0.2047
     22  N3         1.6530    0.2740   -1.0170 N.am    1  UNL1       -0.2959
     23  C17        2.9180    0.8720   -0.6400 C.3     1  UNL1        0.0276
     24  C18        2.9970   -0.2180    0.4370 C.3     1  UNL1        0.0671
     25  C19        3.6160    0.1890    1.6990 C.2     1  UNL1        0.2217
     26  O3         2.9630    0.1500    2.7670 O.2     1  UNL1       -0.2752
     27  N4         4.9590    0.6280    1.7130 N.am    1  UNL1       -0.3012
     28  C20        5.8600    0.7340    0.5810 C.3     1  UNL1        0.0147
     29  C21        7.2570    0.5990    1.1370 C.3     1  UNL1       -0.0357
     30  C22        7.0390    0.3090    2.6110 C.3     1  UNL1       -0.0357
     31  C23        5.7410    1.0740    2.8760 C.3     1  UNL1        0.0147
     32  C24        1.4830   -0.0670    0.3770 C.3     1  UNL1        0.0276
     33 H          -1.5306    1.1652   -2.1020 H       1  UNL1        0.0629
     34 H          -4.7722   -0.3628   -2.7656 H       1  UNL1        0.0377
     35 H          -3.8157    1.1477   -2.9278 H       1  UNL1        0.0377
     36 H          -4.0350    3.3026    0.8184 H       1  UNL1        0.1921
     37 H          -6.2312   -0.0121    3.0198 H       1  UNL1        0.0625
     38 H          -6.9468   -2.2641    2.4107 H       1  UNL1        0.0618
     39 H          -6.4371   -3.0853    0.2102 H       1  UNL1        0.0618
     40 H          -5.2546   -1.7611   -1.4006 H       1  UNL1        0.0624
     41 H          -3.5975   -2.3599   -2.8364 H       1  UNL1        0.0621
     42 H          -1.5089   -3.5374   -3.0090 H       1  UNL1        0.0646
     43 H           2.8502    1.8720   -0.2654 H       1  UNL1        0.0472
     44 H           3.7055    1.0398   -1.3447 H       1  UNL1        0.0472
     45 H           3.5262   -1.1423    0.3341 H       1  UNL1        0.0425
     46 H           5.7423    1.6833    0.1015 H       1  UNL1        0.0464
     47 H           5.6575   -0.0214   -0.1492 H       1  UNL1        0.0464
     48 H           7.8081    1.5067    1.0054 H       1  UNL1        0.0281
     49 H           7.8236   -0.1647    0.6464 H       1  UNL1        0.0281
     50 H           7.8440    0.6843    3.2076 H       1  UNL1        0.0281
     51 H           6.9915   -0.7326    2.8511 H       1  UNL1        0.0281
     52 H           5.2862    0.7818    3.7994 H       1  UNL1        0.0464
     53 H           5.8477    2.1340    2.9755 H       1  UNL1        0.0464
     54 H           0.9347   -0.9684    0.5549 H       1  UNL1        0.0472
     55 H           0.9472    0.5637    1.0553 H       1  UNL1        0.0472
@<TRIPOS>BOND
     1     1     2    2
     2     2     3    1
     3     2    22   am
     4     3     4   ar
     5     3    20   ar
     6     4     5   ar
     7     5     6    1
     8     5    18   ar
     9     6     7    1
    10     7     8   ar
    11     7    17   ar
    12     8     9   ar
    13     9    10   ar
    14    10    11    2
    15    10    12   ar
    16    12    13   ar
    17    12    17   ar
    18    13    14   ar
    19    14    15   ar
    20    15    16   ar
    21    16    17   ar
    22    18    19   ar
    23    19    20   ar
    24    20    21    1
    25    22    23    1
    26    22    32    1
    27    23    24    1
    28    24    25    1
    29    24    32    1
    30    25    26    2
    31    25    27   am
    32    27    28    1
    33    27    31    1
    34    28    29    1
    35    29    30    1
    36    30    31    1
    37     4    33    1
    38     6    34    1
    39     6    35    1
    40     9    36    1
    41    13    37    1
    42    14    38    1
    43    15    39    1
    44    16    40    1
    45    18    41    1
    46    19    42    1
    47    23    43    1
    48    23    44    1
    49    24    45    1
    50    28    46    1
    51    28    47    1
    52    29    48    1
    53    29    49    1
    54    30    50    1
    55    30    51    1
    56    31    52    1
    57    31    53    1
    58    32    54    1
    59    32    55    1
@<TRIPOS>MOLECULE
../data/bude_mols_rdkit_confs2/molecule_100.pdb
 55 59 0 0 0
SMALL
GASTEIGER

@<TRIPOS>ATOM
      1  O1         0.3430   -3.0160    0.6940 O.2     1  UNL1       -0.2699
      2  C1        -0.1970   -1.9860    0.2180 C.2     1  UNL1        0.2494
      3  C2         0.6260   -1.1710   -0.6740 C.ar    1  UNL1        0.0723
      4  C3         1.4150   -0.1350   -0.1990 C.ar    1  UNL1       -0.0433
      5  C4         2.1980    0.6470   -1.0040 C.ar    1  UNL1       -0.0406
      6  C5         3.0540    1.7490   -0.5000 C.3     1  UNL1        0.0171
      7  C6         4.4920    1.4630   -0.5210 C.ar    1  UNL1        0.0736
      8  N1         5.1760    1.9320   -1.6080 N.ar    1  UNL1       -0.1750
      9  N2         6.4620    1.7140   -1.7750 N.ar    1  UNL1       -0.2425
     10  C7         7.1330    1.0090   -0.8580 C.ar    1  UNL1        0.2725
     11  O2         8.3660    0.8170   -1.0480 O.2     1  UNL1       -0.2658
     12  C8         6.5330    0.5030    0.2580 C.ar    1  UNL1        0.0496
     13  C9         7.1990   -0.2170    1.2280 C.ar    1  UNL1       -0.0487
     14  C10        6.5620   -0.7040    2.3500 C.ar    1  UNL1       -0.0610
     15  C11        5.1940   -0.4460    2.4900 C.ar    1  UNL1       -0.0611
     16  C12        4.5190    0.2700    1.5320 C.ar    1  UNL1       -0.0521
     17  C13        5.1800    0.7430    0.4200 C.ar    1  UNL1        0.0106
     18  C14        2.1650    0.3480   -2.3710 C.ar    1  UNL1       -0.0555
     19  C15        1.3900   -0.6730   -2.8650 C.ar    1  UNL1       -0.0254
     20  C16        0.6040   -1.4520   -2.0170 C.ar    1  UNL1        0.1355
     21  F1        -0.1440   -2.4470   -2.5400 F       1  UNL1       -0.2047
     22  N3        -1.5260   -1.6380    0.5300 N.am    1  UNL1       -0.2959
     23  C17       -2.5520   -2.2370    1.3580 C.3     1  UNL1        0.0276
     24  C18       -3.6310   -1.5050    0.5940 C.3     1  UNL1        0.0671
     25  C19       -4.6730   -0.8800    1.4200 C.2     1  UNL1        0.2217
     26  O3        -4.6460   -0.9710    2.6670 O.2     1  UNL1       -0.2752
     27  N4        -5.7380   -0.1560    0.8260 N.am    1  UNL1       -0.3012
     28  C20       -5.9230    0.0480   -0.5860 C.3     1  UNL1        0.0147
     29  C21       -6.4020    1.5020   -0.6750 C.3     1  UNL1       -0.0357
     30  C22       -7.3490    1.5500    0.5050 C.3     1  UNL1       -0.0357
     31  C23       -6.8400    0.5180    1.4820 C.3     1  UNL1        0.0147
     32  C24       -2.4730   -0.5900    0.2090 C.3     1  UNL1        0.0276
     33 H           1.4117    0.0566    0.8150 H       1  UNL1        0.0629
     34 H           2.7698    1.9571    0.5104 H       1  UNL1        0.0377
     35 H           2.9000    2.5782   -1.1584 H       1  UNL1        0.0377
     36 H           6.9266    2.0667   -2.5681 H       1  UNL1        0.1921
     37 H           8.2083   -0.3973    1.1100 H       1  UNL1        0.0625
     38 H           7.0780   -1.2418    3.0638 H       1  UNL1        0.0618
     39 H           4.6887   -0.7962    3.3189 H       1  UNL1        0.0618
     40 H           3.5101    0.4548    1.6460 H       1  UNL1        0.0624
     41 H           2.7363    0.9078   -3.0231 H       1  UNL1        0.0621
     42 H           1.3896   -0.8662   -3.8787 H       1  UNL1        0.0646
     43 H          -2.4903   -1.9629    2.3904 H       1  UNL1        0.0472
     44 H          -2.6001   -3.3009    1.4616 H       1  UNL1        0.0472
     45 H          -4.2895   -1.9712   -0.1088 H       1  UNL1        0.0425
     46 H          -6.6598   -0.6225   -0.9765 H       1  UNL1        0.0464
     47 H          -5.0351   -0.1350   -1.1545 H       1  UNL1        0.0464
     48 H          -6.9090    1.6956   -1.5971 H       1  UNL1        0.0281
     49 H          -5.6204    2.2324   -0.6509 H       1  UNL1        0.0281
     50 H          -8.3443    1.3100    0.1941 H       1  UNL1        0.0281
     51 H          -7.3828    2.5253    0.9438 H       1  UNL1        0.0281
     52 H          -6.5022    0.9927    2.3795 H       1  UNL1        0.0464
     53 H          -7.6107   -0.1724    1.7544 H       1  UNL1        0.0464
     54 H          -2.4702   -0.3012   -0.8213 H       1  UNL1        0.0472
     55 H          -2.3786    0.3768    0.6576 H       1  UNL1        0.0472
@<TRIPOS>BOND
     1     1     2    2
     2     2     3    1
     3     2    22   am
     4     3     4   ar
     5     3    20   ar
     6     4     5   ar
     7     5     6    1
     8     5    18   ar
     9     6     7    1
    10     7     8   ar
    11     7    17   ar
    12     8     9   ar
    13     9    10   ar
    14    10    11    2
    15    10    12   ar
    16    12    13   ar
    17    12    17   ar
    18    13    14   ar
    19    14    15   ar
    20    15    16   ar
    21    16    17   ar
    22    18    19   ar
    23    19    20   ar
    24    20    21    1
    25    22    23    1
    26    22    32    1
    27    23    24    1
    28    24    25    1
    29    24    32    1
    30    25    26    2
    31    25    27   am
    32    27    28    1
    33    27    31    1
    34    28    29    1
    35    29    30    1
    36    30    31    1
    37     4    33    1
    38     6    34    1
    39     6    35    1
    40     9    36    1
    41    13    37    1
    42    14    38    1
    43    15    39    1
    44    16    40    1
    45    18    41    1
    46    19    42    1
    47    23    43    1
    48    23    44    1
    49    24    45    1
    50    28    46    1
    51    28    47    1
    52    29    48    1
    53    29    49    1
    54    30    50    1
    55    30    51    1
    56    31    52    1
    57    31    53    1
    58    32    54    1
    59    32    55    1
@<TRIPOS>MOLECULE
../data/bude_mols_rdkit_confs2/molecule_100.pdb
 55 59 0 0 0
SMALL
GASTEIGER

@<TRIPOS>ATOM
      1  O1         0.9290    1.9780    0.1280 O.2     1  UNL1       -0.2699
      2  C1         0.9140    0.7620    0.4150 C.2     1  UNL1        0.2494
      3  C2        -0.2050   -0.0530   -0.0530 C.ar    1  UNL1        0.0723
      4  C3        -1.3260   -0.2060    0.7260 C.ar    1  UNL1       -0.0433
      5  C4        -2.4200   -0.9920    0.3190 C.ar    1  UNL1       -0.0406
      6  C5        -3.5870   -1.1210    1.2240 C.3     1  UNL1        0.0171
      7  C6        -4.5300    0.0050    1.1620 C.ar    1  UNL1        0.0736
      8  N1        -4.3400    1.0100    2.0720 N.ar    1  UNL1       -0.1750
      9  N2        -5.0750    2.1000    2.0950 N.ar    1  UNL1       -0.2425
     10  C7        -6.0600    2.2430    1.1890 C.ar    1  UNL1        0.2725
     11  O2        -6.7810    3.2720    1.1820 O.2     1  UNL1       -0.2658
     12  C8        -6.3120    1.2560    0.2320 C.ar    1  UNL1        0.0496
     13  C9        -7.3300    1.3880   -0.6870 C.ar    1  UNL1       -0.0487
     14  C10       -7.5750    0.3950   -1.6120 C.ar    1  UNL1       -0.0610
     15  C11       -6.7810   -0.7570   -1.6160 C.ar    1  UNL1       -0.0611
     16  C12       -5.7770   -0.8370   -0.6760 C.ar    1  UNL1       -0.0521
     17  C13       -5.5230    0.1350    0.2420 C.ar    1  UNL1        0.0106
     18  C14       -2.2900   -1.5860   -0.8980 C.ar    1  UNL1       -0.0555
     19  C15       -1.1510   -1.4360   -1.7020 C.ar    1  UNL1       -0.0254
     20  C16       -0.1110   -0.6680   -1.2740 C.ar    1  UNL1        0.1355
     21  F1         1.0030   -0.4990   -2.0200 F       1  UNL1       -0.2047
     22  N3         1.9720    0.2060    1.1790 N.am    1  UNL1       -0.2959
     23  C17        3.2110    0.5900    1.8210 C.3     1  UNL1        0.0276
     24  C18        3.7170   -0.8190    1.4890 C.3     1  UNL1        0.0671
     25  C19        4.1740   -0.8430    0.0820 C.2     1  UNL1        0.2217
     26  O3         3.5470   -1.5760   -0.7260 O.2     1  UNL1       -0.2752
     27  N4         5.2690   -0.0680   -0.3270 N.am    1  UNL1       -0.3012
     28  C20        6.0860    0.8010    0.4810 C.3     1  UNL1        0.0147
     29  C21        7.4990    0.5010   -0.0530 C.3     1  UNL1       -0.0357
     30  C22        7.2980   -0.0710   -1.4320 C.3     1  UNL1       -0.0357
     31  C23        5.8090    0.0200   -1.6550 C.3     1  UNL1        0.0147
     32  C24        2.2510   -1.1560    1.6750 C.3     1  UNL1        0.0276
     33 H          -1.3673    0.2713    1.6401 H       1  UNL1        0.0629
     34 H          -3.2251   -1.1997    2.2279 H       1  UNL1        0.0377
     35 H          -4.1259   -1.9890    0.9061 H       1  UNL1        0.0377
     36 H          -4.9073    2.8014    2.7652 H       1  UNL1        0.1921
     37 H          -7.9149    2.2383   -0.6831 H       1  UNL1        0.0625
     38 H          -8.3394    0.5010   -2.2972 H       1  UNL1        0.0618
     39 H          -6.9411   -1.5166   -2.2960 H       1  UNL1        0.0618
     40 H          -5.1841   -1.6816   -0.6675 H       1  UNL1        0.0624
     41 H          -3.0644   -2.1733   -1.2450 H       1  UNL1        0.0621
     42 H          -1.1008   -1.9078   -2.6185 H       1  UNL1        0.0646
     43 H           3.1281    0.8028    2.8663 H       1  UNL1        0.0472
     44 H           3.7500    1.4699    1.5380 H       1  UNL1        0.0472
     45 H           4.5022   -1.3595    1.9750 H       1  UNL1        0.0425
     46 H           6.0032    0.5575    1.5196 H       1  UNL1        0.0464
     47 H           5.8112    1.8332    0.4175 H       1  UNL1        0.0464
     48 H           7.9936   -0.2084    0.5771 H       1  UNL1        0.0281
     49 H           8.1091    1.3797   -0.0740 H       1  UNL1        0.0281
     50 H           7.6266   -1.0885   -1.4727 H       1  UNL1        0.0281
     51 H           7.8577    0.4521   -2.1790 H       1  UNL1        0.0281
     52 H           5.5465    0.9500   -2.1145 H       1  UNL1        0.0464
     53 H           5.4367   -0.7405   -2.3092 H       1  UNL1        0.0464
     54 H           1.8877   -1.9458    1.0513 H       1  UNL1        0.0472
     55 H           1.8603   -1.5184    2.6028 H       1  UNL1        0.0472
@<TRIPOS>BOND
     1     1     2    2
     2     2     3    1
     3     2    22   am
     4     3     4   ar
     5     3    20   ar
     6     4     5   ar
     7     5     6    1
     8     5    18   ar
     9     6     7    1
    10     7     8   ar
    11     7    17   ar
    12     8     9   ar
    13     9    10   ar
    14    10    11    2
    15    10    12   ar
    16    12    13   ar
    17    12    17   ar
    18    13    14   ar
    19    14    15   ar
    20    15    16   ar
    21    16    17   ar
    22    18    19   ar
    23    19    20   ar
    24    20    21    1
    25    22    23    1
    26    22    32    1
    27    23    24    1
    28    24    25    1
    29    24    32    1
    30    25    26    2
    31    25    27   am
    32    27    28    1
    33    27    31    1
    34    28    29    1
    35    29    30    1
    36    30    31    1
    37     4    33    1
    38     6    34    1
    39     6    35    1
    40     9    36    1
    41    13    37    1
    42    14    38    1
    43    15    39    1
    44    16    40    1
    45    18    41    1
    46    19    42    1
    47    23    43    1
    48    23    44    1
    49    24    45    1
    50    28    46    1
    51    28    47    1
    52    29    48    1
    53    29    49    1
    54    30    50    1
    55    30    51    1
    56    31    52    1
    57    31    53    1
    58    32    54    1
    59    32    55    1
@<TRIPOS>MOLECULE
../data/bude_mols_rdkit_confs2/molecule_100.pdb
 55 59 0 0 0
SMALL
GASTEIGER

@<TRIPOS>ATOM
      1  O1        -1.6860    3.0220   -0.3140 O.2     1  UNL1       -0.2699
      2  C1        -1.1440    1.8990   -0.1640 C.2     1  UNL1        0.2494
      3  C2        -0.0370    1.5860   -1.0650 C.ar    1  UNL1        0.0723
      4  C3         1.2430    1.9230   -0.7070 C.ar    1  UNL1       -0.0433
      5  C4         2.3450    1.6540   -1.5390 C.ar    1  UNL1       -0.0406
      6  C5         3.7090    2.0830   -1.0800 C.3     1  UNL1        0.0171
      7  C6         4.2600    1.2740    0.0040 C.ar    1  UNL1        0.0736
      8  N1         4.1180    1.6860    1.3030 N.ar    1  UNL1       -0.1750
      9  N2         4.5530    0.9830    2.3320 N.ar    1  UNL1       -0.2425
     10  C7         5.1730   -0.2000    2.1880 C.ar    1  UNL1        0.2725
     11  O2         5.5820   -0.8580    3.1920 O.2     1  UNL1       -0.2658
     12  C8         5.3450   -0.6660    0.9050 C.ar    1  UNL1        0.0496
     13  C9         5.9980   -1.8800    0.7520 C.ar    1  UNL1       -0.0487
     14  C10        6.1890   -2.3480   -0.5300 C.ar    1  UNL1       -0.0610
     15  C11        5.7500   -1.6420   -1.6480 C.ar    1  UNL1       -0.0611
     16  C12        5.1090   -0.4450   -1.4420 C.ar    1  UNL1       -0.0521
     17  C13        4.8910    0.0690   -0.1770 C.ar    1  UNL1        0.0106
     18  C14        2.1060    1.0390   -2.7320 C.ar    1  UNL1       -0.0555
     19  C15        0.7940    0.7000   -3.0840 C.ar    1  UNL1       -0.0254
     20  C16       -0.2600    0.9680   -2.2660 C.ar    1  UNL1        0.1355
     21  F1        -1.5390    0.6530   -2.5780 F       1  UNL1       -0.2047
     22  N3        -1.5280    0.9510    0.7970 N.am    1  UNL1       -0.2959
     23  C17       -2.5370    0.8860    1.8340 C.3     1  UNL1        0.0276
     24  C18       -2.5970   -0.5990    1.5700 C.3     1  UNL1        0.0671
     25  C19       -3.3210   -1.0240    0.3490 C.2     1  UNL1        0.2217
     26  O3        -2.6940   -1.6320   -0.5920 O.2     1  UNL1       -0.2752
     27  N4        -4.7010   -0.8060    0.1320 N.am    1  UNL1       -0.3012
     28  C20       -5.6650   -0.1540    0.9940 C.3     1  UNL1        0.0147
     29  C21       -7.0340   -0.5940    0.5020 C.3     1  UNL1       -0.0357
     30  C22       -6.6920   -1.7810   -0.3860 C.3     1  UNL1       -0.0357
     31  C23       -5.4260   -1.2380   -1.0700 C.3     1  UNL1        0.0147
     32  C24       -1.1210   -0.3670    1.2020 C.3     1  UNL1        0.0276
     33 H           1.4028    2.3881    0.2003 H       1  UNL1        0.0629
     34 H           3.6458    3.0966   -0.7430 H       1  UNL1        0.0377
     35 H           4.3656    1.9631   -1.9163 H       1  UNL1        0.0377
     36 H           4.4179    1.3393    3.2398 H       1  UNL1        0.1921
     37 H           6.3295   -2.4145    1.5702 H       1  UNL1        0.0625
     38 H           6.6723   -3.2496   -0.6662 H       1  UNL1        0.0618
     39 H           5.9018   -2.0071   -2.6012 H       1  UNL1        0.0618
     40 H           4.7783    0.0898   -2.2603 H       1  UNL1        0.0624
     41 H           2.8871    0.8247   -3.3715 H       1  UNL1        0.0621
     42 H           0.6215    0.2341   -3.9886 H       1  UNL1        0.0646
     43 H          -3.4397    1.4171    1.6151 H       1  UNL1        0.0472
     44 H          -2.3699    1.2819    2.8139 H       1  UNL1        0.0472
     45 H          -3.0077   -1.2812    2.2848 H       1  UNL1        0.0425
     46 H          -5.5684    0.9092    0.9221 H       1  UNL1        0.0464
     47 H          -5.5143   -0.4182    2.0199 H       1  UNL1        0.0464
     48 H          -7.5133    0.1827   -0.0566 H       1  UNL1        0.0281
     49 H          -7.7173   -0.8311    1.2905 H       1  UNL1        0.0281
     50 H          -7.4690   -1.9868   -1.0923 H       1  UNL1        0.0281
     51 H          -6.5657   -2.7105    0.1288 H       1  UNL1        0.0281
     52 H          -4.8995   -1.9990   -1.6072 H       1  UNL1        0.0464
     53 H          -5.5848   -0.4854   -1.8138 H       1  UNL1        0.0464
     54 H          -0.4406   -0.3952    2.0273 H       1  UNL1        0.0472
     55 H          -0.5814   -1.0252    0.5535 H       1  UNL1        0.0472
@<TRIPOS>BOND
     1     1     2    2
     2     2     3    1
     3     2    22   am
     4     3     4   ar
     5     3    20   ar
     6     4     5   ar
     7     5     6    1
     8     5    18   ar
     9     6     7    1
    10     7     8   ar
    11     7    17   ar
    12     8     9   ar
    13     9    10   ar
    14    10    11    2
    15    10    12   ar
    16    12    13   ar
    17    12    17   ar
    18    13    14   ar
    19    14    15   ar
    20    15    16   ar
    21    16    17   ar
    22    18    19   ar
    23    19    20   ar
    24    20    21    1
    25    22    23    1
    26    22    32    1
    27    23    24    1
    28    24    25    1
    29    24    32    1
    30    25    26    2
    31    25    27   am
    32    27    28    1
    33    27    31    1
    34    28    29    1
    35    29    30    1
    36    30    31    1
    37     4    33    1
    38     6    34    1
    39     6    35    1
    40     9    36    1
    41    13    37    1
    42    14    38    1
    43    15    39    1
    44    16    40    1
    45    18    41    1
    46    19    42    1
    47    23    43    1
    48    23    44    1
    49    24    45    1
    50    28    46    1
    51    28    47    1
    52    29    48    1
    53    29    49    1
    54    30    50    1
    55    30    51    1
    56    31    52    1
    57    31    53    1
    58    32    54    1
    59    32    55    1
@<TRIPOS>MOLECULE
../data/bude_mols_rdkit_confs2/molecule_100.pdb
 55 59 0 0 0
SMALL
GASTEIGER

@<TRIPOS>ATOM
      1  O1        -0.1740   -0.5580    2.4000 O.2     1  UNL1       -0.2699
      2  C1        -0.4830   -0.4000    1.1830 C.2     1  UNL1        0.2494
      3  C2         0.4150   -1.0370    0.2160 C.ar    1  UNL1        0.0723
      4  C3         1.5060   -0.3280   -0.2060 C.ar    1  UNL1       -0.0433
      5  C4         2.3820   -0.8750   -1.0990 C.ar    1  UNL1       -0.0406
      6  C5         3.6170   -0.1320   -1.5740 C.3     1  UNL1        0.0171
      7  C6         4.7580   -0.5410   -0.6930 C.ar    1  UNL1        0.0736
      8  N1         4.7380   -1.7300   -0.0730 N.ar    1  UNL1       -0.1750
      9  N2         5.6910   -2.1320    0.7170 N.ar    1  UNL1       -0.2425
     10  C7         6.7350   -1.3280    0.9220 C.ar    1  UNL1        0.2725
     11  O2         7.6880   -1.6560    1.6750 O.2     1  UNL1       -0.2658
     12  C8         6.8350   -0.0790    0.3180 C.ar    1  UNL1        0.0496
     13  C9         7.9140    0.7320    0.5320 C.ar    1  UNL1       -0.0487
     14  C10        7.9990    1.9640   -0.0810 C.ar    1  UNL1       -0.0610
     15  C11        6.9980    2.3910   -0.9150 C.ar    1  UNL1       -0.0611
     16  C12        5.9180    1.5520   -1.1140 C.ar    1  UNL1       -0.0521
     17  C13        5.7980    0.3110   -0.5170 C.ar    1  UNL1        0.0106
     18  C14        2.1620   -2.1430   -1.5720 C.ar    1  UNL1       -0.0555
     19  C15        1.0630   -2.8390   -1.1380 C.ar    1  UNL1       -0.0254
     20  C16        0.1660   -2.3040   -0.2350 C.ar    1  UNL1        0.1355
     21  F1        -0.9260   -2.9670    0.2110 F       1  UNL1       -0.2047
     22  N3        -1.6040    0.3290    0.7580 N.am    1  UNL1       -0.2959
     23  C17       -2.6820    1.0660    1.3780 C.3     1  UNL1        0.0276
     24  C18       -3.5520    0.4800    0.2450 C.3     1  UNL1        0.0671
     25  C19       -4.6650    1.3180   -0.1880 C.2     1  UNL1        0.2217
     26  O3        -4.5230    2.5140   -0.5820 O.2     1  UNL1       -0.2752
     27  N4        -5.9730    0.7850   -0.1740 N.am    1  UNL1       -0.3012
     28  C20       -6.3380   -0.5440    0.2520 C.3     1  UNL1        0.0147
     29  C21       -7.7000   -0.4010    0.9270 C.3     1  UNL1       -0.0357
     30  C22       -8.3100    0.7560    0.1990 C.3     1  UNL1       -0.0357
     31  C23       -7.2020    1.4330   -0.5820 C.3     1  UNL1        0.0147
     32  C24       -2.2220    0.6740   -0.5050 C.3     1  UNL1        0.0276
     33 H           1.6679    0.6260    0.1527 H       1  UNL1        0.0629
     34 H           3.4589    0.9236   -1.4998 H       1  UNL1        0.0377
     35 H           3.8279   -0.3680   -2.5961 H       1  UNL1        0.0377
     36 H           5.6421   -3.0125    1.1547 H       1  UNL1        0.1921
     37 H           8.6723    0.4193    1.1583 H       1  UNL1        0.0625
     38 H           8.8191    2.5670    0.0885 H       1  UNL1        0.0618
     39 H           7.0495    3.3109   -1.3800 H       1  UNL1        0.0618
     40 H           5.1618    1.8684   -1.7409 H       1  UNL1        0.0624
     41 H           2.8162   -2.5689   -2.2471 H       1  UNL1        0.0621
     42 H           0.9013   -3.7927   -1.4977 H       1  UNL1        0.0646
     43 H          -2.5730    2.1303    1.3647 H       1  UNL1        0.0472
     44 H          -2.9325    0.9731    2.4141 H       1  UNL1        0.0472
     45 H          -4.1124   -0.4305    0.2874 H       1  UNL1        0.0425
     46 H          -5.6166   -0.9254    0.9442 H       1  UNL1        0.0464
     47 H          -6.3744   -1.2268   -0.5710 H       1  UNL1        0.0464
     48 H          -7.5929   -0.1872    1.9699 H       1  UNL1        0.0281
     49 H          -8.2920   -1.2911    0.8802 H       1  UNL1        0.0281
     50 H          -8.7380    1.4438    0.8981 H       1  UNL1        0.0281
     51 H          -9.0867    0.4231   -0.4573 H       1  UNL1        0.0281
     52 H          -7.3575    1.3071   -1.6331 H       1  UNL1        0.0464
     53 H          -7.1731    2.4851   -0.3895 H       1  UNL1        0.0464
     54 H          -2.0441   -0.0167   -1.3026 H       1  UNL1        0.0472
     55 H          -1.9829    1.5651   -1.0470 H       1  UNL1        0.0472
@<TRIPOS>BOND
     1     1     2    2
     2     2     3    1
     3     2    22   am
     4     3     4   ar
     5     3    20   ar
     6     4     5   ar
     7     5     6    1
     8     5    18   ar
     9     6     7    1
    10     7     8   ar
    11     7    17   ar
    12     8     9   ar
    13     9    10   ar
    14    10    11    2
    15    10    12   ar
    16    12    13   ar
    17    12    17   ar
    18    13    14   ar
    19    14    15   ar
    20    15    16   ar
    21    16    17   ar
    22    18    19   ar
    23    19    20   ar
    24    20    21    1
    25    22    23    1
    26    22    32    1
    27    23    24    1
    28    24    25    1
    29    24    32    1
    30    25    26    2
    31    25    27   am
    32    27    28    1
    33    27    31    1
    34    28    29    1
    35    29    30    1
    36    30    31    1
    37     4    33    1
    38     6    34    1
    39     6    35    1
    40     9    36    1
    41    13    37    1
    42    14    38    1
    43    15    39    1
    44    16    40    1
    45    18    41    1
    46    19    42    1
    47    23    43    1
    48    23    44    1
    49    24    45    1
    50    28    46    1
    51    28    47    1
    52    29    48    1
    53    29    49    1
    54    30    50    1
    55    30    51    1
    56    31    52    1
    57    31    53    1
    58    32    54    1
    59    32    55    1
@<TRIPOS>MOLECULE
../data/bude_mols_rdkit_confs2/molecule_100.pdb
 55 59 0 0 0
SMALL
GASTEIGER

@<TRIPOS>ATOM
      1  O1        -0.3740   -2.2830    2.3060 O.2     1  UNL1       -0.2699
      2  C1        -0.6780   -1.4670    1.3700 C.2     1  UNL1        0.2494
      3  C2         0.1060   -1.3900    0.1580 C.ar    1  UNL1        0.0723
      4  C3         1.1980   -0.5310    0.1670 C.ar    1  UNL1       -0.0433
      5  C4         2.0420   -0.3690   -0.9200 C.ar    1  UNL1       -0.0406
      6  C5         3.2110    0.5610   -0.9160 C.3     1  UNL1        0.0171
      7  C6         4.4820   -0.0940   -0.6320 C.ar    1  UNL1        0.0736
      8  N1         4.6500   -1.4040   -0.9110 N.ar    1  UNL1       -0.1750
      9  N2         5.8000   -2.0180   -0.6720 N.ar    1  UNL1       -0.2425
     10  C7         6.8700   -1.3680   -0.1350 C.ar    1  UNL1        0.2725
     11  O2         7.9610   -1.9550    0.0910 O.2     1  UNL1       -0.2658
     12  C8         6.7560   -0.0360    0.1700 C.ar    1  UNL1        0.0496
     13  C9         7.8080    0.6740    0.7090 C.ar    1  UNL1       -0.0487
     14  C10        7.7070    2.0220    1.0150 C.ar    1  UNL1       -0.0610
     15  C11        6.5140    2.6570    0.7670 C.ar    1  UNL1       -0.0611
     16  C12        5.4730    1.9210    0.2260 C.ar    1  UNL1       -0.0521
     17  C13        5.5310    0.5920   -0.0910 C.ar    1  UNL1        0.0106
     18  C14        1.7410   -1.1210   -2.0500 C.ar    1  UNL1       -0.0555
     19  C15        0.6520   -1.9800   -2.0650 C.ar    1  UNL1       -0.0254
     20  C16       -0.1700   -2.1190   -0.9650 C.ar    1  UNL1        0.1355
     21  F1        -1.2440   -2.9660   -0.9810 F       1  UNL1       -0.2047
     22  N3        -1.8220   -0.6340    1.5680 N.am    1  UNL1       -0.2959
     23  C17       -2.7650   -0.4610    2.6340 C.3     1  UNL1        0.0276
     24  C18       -3.6940    0.2520    1.7060 C.3     1  UNL1        0.0671
     25  C19       -4.8060   -0.5380    1.1760 C.2     1  UNL1        0.2217
     26  O3        -4.9480   -1.7350    1.5270 O.2     1  UNL1       -0.2752
     27  N4        -5.7260    0.0340    0.2730 N.am    1  UNL1       -0.3012
     28  C20       -5.6930    1.3990   -0.2690 C.3     1  UNL1        0.0147
     29  C21       -6.2870    1.1860   -1.6510 C.3     1  UNL1       -0.0357
     30  C22       -7.4460    0.2370   -1.3330 C.3     1  UNL1       -0.0357
     31  C23       -6.9050   -0.6510   -0.2650 C.3     1  UNL1        0.0147
     32  C24       -2.5140    0.3520    0.7930 C.3     1  UNL1        0.0276
     33 H           1.3895    0.0119    1.0235 H       1  UNL1        0.0629
     34 H           3.0436    1.3104   -0.1708 H       1  UNL1        0.0377
     35 H           3.2854    0.9728   -1.9008 H       1  UNL1        0.0377
     36 H           5.8836   -2.9745   -0.8895 H       1  UNL1        0.1921
     37 H           8.6991    0.1860    0.8904 H       1  UNL1        0.0625
     38 H           8.5064    2.5351    1.4183 H       1  UNL1        0.0618
     39 H           6.3963    3.6601    0.9792 H       1  UNL1        0.0618
     40 H           4.5840    2.4141    0.0482 H       1  UNL1        0.0624
     41 H           2.3360   -1.0390   -2.8892 H       1  UNL1        0.0621
     42 H           0.4521   -2.5270   -2.9170 H       1  UNL1        0.0646
     43 H          -2.4053    0.1437    3.4402 H       1  UNL1        0.0472
     44 H          -3.1063   -1.3062    3.1945 H       1  UNL1        0.0472
     45 H          -4.2724    1.0962    2.0185 H       1  UNL1        0.0425
     46 H          -4.6923    1.7734   -0.3264 H       1  UNL1        0.0464
     47 H          -6.2152    2.1190    0.3258 H       1  UNL1        0.0464
     48 H          -5.5810    0.7339   -2.3159 H       1  UNL1        0.0281
     49 H          -6.5808    2.0876   -2.1467 H       1  UNL1        0.0281
     50 H          -7.7198   -0.3314   -2.1972 H       1  UNL1        0.0281
     51 H          -8.3302    0.7561   -1.0271 H       1  UNL1        0.0281
     52 H          -7.6348   -0.7941    0.5043 H       1  UNL1        0.0464
     53 H          -6.6546   -1.6177   -0.6493 H       1  UNL1        0.0464
     54 H          -2.7156    0.0520   -0.2141 H       1  UNL1        0.0472
     55 H          -2.0606    1.3018    0.6000 H       1  UNL1        0.0472
@<TRIPOS>BOND
     1     1     2    2
     2     2     3    1
     3     2    22   am
     4     3     4   ar
     5     3    20   ar
     6     4     5   ar
     7     5     6    1
     8     5    18   ar
     9     6     7    1
    10     7     8   ar
    11     7    17   ar
    12     8     9   ar
    13     9    10   ar
    14    10    11    2
    15    10    12   ar
    16    12    13   ar
    17    12    17   ar
    18    13    14   ar
    19    14    15   ar
    20    15    16   ar
    21    16    17   ar
    22    18    19   ar
    23    19    20   ar
    24    20    21    1
    25    22    23    1
    26    22    32    1
    27    23    24    1
    28    24    25    1
    29    24    32    1
    30    25    26    2
    31    25    27   am
    32    27    28    1
    33    27    31    1
    34    28    29    1
    35    29    30    1
    36    30    31    1
    37     4    33    1
    38     6    34    1
    39     6    35    1
    40     9    36    1
    41    13    37    1
    42    14    38    1
    43    15    39    1
    44    16    40    1
    45    18    41    1
    46    19    42    1
    47    23    43    1
    48    23    44    1
    49    24    45    1
    50    28    46    1
    51    28    47    1
    52    29    48    1
    53    29    49    1
    54    30    50    1
    55    30    51    1
    56    31    52    1
    57    31    53    1
    58    32    54    1
    59    32    55    1
@<TRIPOS>MOLECULE
../data/bude_mols_rdkit_confs2/molecule_100.pdb
 55 59 0 0 0
SMALL
GASTEIGER

@<TRIPOS>ATOM
      1  O1         1.5640    2.3180    2.1860 O.2     1  UNL1       -0.2699
      2  C1         1.0700    1.4320    1.4070 C.2     1  UNL1        0.2494
      3  C2        -0.1980    1.8080    0.7910 C.ar    1  UNL1        0.0723
      4  C3        -1.4090    1.5250    1.3810 C.ar    1  UNL1       -0.0433
      5  C4        -2.6330    1.8900    0.8000 C.ar    1  UNL1       -0.0406
      6  C5        -3.8890    1.5630    1.4980 C.3     1  UNL1        0.0171
      7  C6        -4.3450    0.1700    1.3220 C.ar    1  UNL1        0.0736
      8  N1        -3.9690   -0.7820    2.2370 N.ar    1  UNL1       -0.1750
      9  N2        -4.2870   -2.0510    2.1070 N.ar    1  UNL1       -0.2425
     10  C7        -5.0020   -2.5220    1.0750 C.ar    1  UNL1        0.2725
     11  O2        -5.2960   -3.7630    0.9740 O.2     1  UNL1       -0.2658
     12  C8        -5.4210   -1.6330    0.1110 C.ar    1  UNL1        0.0496
     13  C9        -6.1740   -2.1060   -0.9470 C.ar    1  UNL1       -0.0487
     14  C10       -6.6030   -1.2010   -1.8930 C.ar    1  UNL1       -0.0610
     15  C11       -6.2690    0.1500   -1.7540 C.ar    1  UNL1       -0.0611
     16  C12       -5.5150    0.5900   -0.6860 C.ar    1  UNL1       -0.0521
     17  C13       -5.0800   -0.2880    0.2570 C.ar    1  UNL1        0.0106
     18  C14       -2.5580    2.5470   -0.3900 C.ar    1  UNL1       -0.0555
     19  C15       -1.3290    2.8390   -1.0000 C.ar    1  UNL1       -0.0254
     20  C16       -0.1440    2.4730   -0.4160 C.ar    1  UNL1        0.1355
     21  F1         1.0500    2.7590   -1.0120 F       1  UNL1       -0.2047
     22  N3         1.6990    0.2050    1.1670 N.am    1  UNL1       -0.2959
     23  C17        1.3880   -0.9580    0.3660 C.3     1  UNL1        0.0276
     24  C18        2.8770   -1.2300    0.3050 C.3     1  UNL1        0.0671
     25  C19        3.5910   -0.5070   -0.7620 C.2     1  UNL1        0.2217
     26  O3         3.0190    0.2730   -1.5810 O.2     1  UNL1       -0.2752
     27  N4         4.9850   -0.6720   -0.9010 N.am    1  UNL1       -0.3012
     28  C20        5.8230   -1.5040   -0.0830 C.3     1  UNL1        0.0147
     29  C21        6.9640   -0.5380    0.2530 C.3     1  UNL1       -0.0357
     30  C22        7.0600    0.3540   -0.9710 C.3     1  UNL1       -0.0357
     31  C23        5.9070   -0.0660   -1.8680 C.3     1  UNL1        0.0147
     32  C24        2.9200   -0.4270    1.6030 C.3     1  UNL1        0.0276
     33 H          -1.4170    1.0258    2.2842 H       1  UNL1        0.0629
     34 H          -4.6545    2.2138    1.1301 H       1  UNL1        0.0377
     35 H          -3.6971    1.6896    2.5430 H       1  UNL1        0.0377
     36 H          -3.9866   -2.6841    2.7986 H       1  UNL1        0.1921
     37 H          -6.4081   -3.1080   -1.0261 H       1  UNL1        0.0625
     38 H          -7.1663   -1.5174   -2.6977 H       1  UNL1        0.0618
     39 H          -6.5917    0.8284   -2.4616 H       1  UNL1        0.0618
     40 H          -5.2796    1.5913   -0.6021 H       1  UNL1        0.0624
     41 H          -3.4308    2.8388   -0.8570 H       1  UNL1        0.0621
     42 H          -1.3167    3.3377   -1.9034 H       1  UNL1        0.0646
     43 H           0.9347   -0.7413   -0.5787 H       1  UNL1        0.0472
     44 H           0.6928   -1.7008    0.6975 H       1  UNL1        0.0472
     45 H           3.2652   -2.2176    0.1678 H       1  UNL1        0.0425
     46 H           6.1773   -2.3563   -0.6242 H       1  UNL1        0.0464
     47 H           5.3308   -1.9169    0.7726 H       1  UNL1        0.0464
     48 H           7.8793   -1.0697    0.4092 H       1  UNL1        0.0281
     49 H           6.7861    0.0136    1.1524 H       1  UNL1        0.0281
     50 H           7.9952    0.2062   -1.4695 H       1  UNL1        0.0281
     51 H           7.0060    1.3910   -0.7129 H       1  UNL1        0.0281
     52 H           5.4635    0.7777   -2.3542 H       1  UNL1        0.0464
     53 H           6.1923   -0.7199   -2.6654 H       1  UNL1        0.0464
     54 H           2.8279   -1.0117    2.4944 H       1  UNL1        0.0472
     55 H           3.7805    0.1410    1.8890 H       1  UNL1        0.0472
@<TRIPOS>BOND
     1     1     2    2
     2     2     3    1
     3     2    22   am
     4     3     4   ar
     5     3    20   ar
     6     4     5   ar
     7     5     6    1
     8     5    18   ar
     9     6     7    1
    10     7     8   ar
    11     7    17   ar
    12     8     9   ar
    13     9    10   ar
    14    10    11    2
    15    10    12   ar
    16    12    13   ar
    17    12    17   ar
    18    13    14   ar
    19    14    15   ar
    20    15    16   ar
    21    16    17   ar
    22    18    19   ar
    23    19    20   ar
    24    20    21    1
    25    22    23    1
    26    22    32    1
    27    23    24    1
    28    24    25    1
    29    24    32    1
    30    25    26    2
    31    25    27   am
    32    27    28    1
    33    27    31    1
    34    28    29    1
    35    29    30    1
    36    30    31    1
    37     4    33    1
    38     6    34    1
    39     6    35    1
    40     9    36    1
    41    13    37    1
    42    14    38    1
    43    15    39    1
    44    16    40    1
    45    18    41    1
    46    19    42    1
    47    23    43    1
    48    23    44    1
    49    24    45    1
    50    28    46    1
    51    28    47    1
    52    29    48    1
    53    29    49    1
    54    30    50    1
    55    30    51    1
    56    31    52    1
    57    31    53    1
    58    32    54    1
    59    32    55    1
@<TRIPOS>MOLECULE
../data/bude_mols_rdkit_confs2/molecule_100.pdb
 55 59 0 0 0
SMALL
GASTEIGER

@<TRIPOS>ATOM
      1  O1         0.5910    1.2990    2.7180 O.2     1  UNL1       -0.2699
      2  C1        -0.0600    1.0540    1.6460 C.2     1  UNL1        0.2494
      3  C2         0.6960    1.1900    0.4070 C.ar    1  UNL1        0.0723
      4  C3         1.3790    0.1260   -0.1240 C.ar    1  UNL1       -0.0433
      5  C4         2.0830    0.2780   -1.2860 C.ar    1  UNL1       -0.0406
      6  C5         2.8690   -0.8120   -1.9290 C.3     1  UNL1        0.0171
      7  C6         4.3120   -0.5710   -1.8030 C.ar    1  UNL1        0.0736
      8  N1         4.8980    0.0320   -2.8870 N.ar    1  UNL1       -0.1750
      9  N2         6.1810    0.3180   -2.8300 N.ar    1  UNL1       -0.2425
     10  C7         6.9750    0.0640   -1.7800 C.ar    1  UNL1        0.2725
     11  O2         8.2010    0.3730   -1.8060 O.2     1  UNL1       -0.2658
     12  C8         6.4320   -0.5450   -0.6630 C.ar    1  UNL1        0.0496
     13  C9         7.2420   -0.8180    0.4110 C.ar    1  UNL1       -0.0487
     14  C10        6.6520   -1.4380    1.4940 C.ar    1  UNL1       -0.0610
     15  C11        5.3140   -1.7670    1.4990 C.ar    1  UNL1       -0.0611
     16  C12        4.5250   -1.4710    0.3870 C.ar    1  UNL1       -0.0521
     17  C13        5.0790   -0.8540   -0.7060 C.ar    1  UNL1        0.0106
     18  C14        2.1310    1.5060   -1.9670 C.ar    1  UNL1       -0.0555
     19  C15        1.4300    2.5400   -1.3960 C.ar    1  UNL1       -0.0254
     20  C16        0.7210    2.3970   -0.2290 C.ar    1  UNL1        0.1355
     21  F1         0.0720    3.4970    0.2300 F       1  UNL1       -0.2047
     22  N3        -1.4120    0.6830    1.7130 N.am    1  UNL1       -0.2959
     23  C17       -2.4370    0.3430    0.7580 C.3     1  UNL1        0.0276
     24  C18       -3.4480    0.8750    1.7420 C.3     1  UNL1        0.0671
     25  C19       -4.7110    0.1160    1.8740 C.2     1  UNL1        0.2217
     26  O3        -4.9100   -0.3990    3.0110 O.2     1  UNL1       -0.2752
     27  N4        -5.6780   -0.0760    0.8740 N.am    1  UNL1       -0.3012
     28  C20       -6.8980   -0.8210    1.0160 C.3     1  UNL1        0.0147
     29  C21       -7.5620   -0.8490   -0.3350 C.3     1  UNL1       -0.0357
     30  C22       -6.4580   -0.5140   -1.3120 C.3     1  UNL1       -0.0357
     31  C23       -5.6190    0.4440   -0.4610 C.3     1  UNL1        0.0147
     32  C24       -2.3810    0.4760    2.7510 C.3     1  UNL1        0.0276
     33 H           1.3616   -0.7889    0.3532 H       1  UNL1        0.0629
     34 H           2.6127   -0.8618   -2.9667 H       1  UNL1        0.0377
     35 H           2.6351   -1.7335   -1.4381 H       1  UNL1        0.0377
     36 H           6.5876    0.7500   -3.6157 H       1  UNL1        0.1921
     37 H           8.2441   -0.5715    0.4089 H       1  UNL1        0.0625
     38 H           7.2277   -1.6608    2.3210 H       1  UNL1        0.0618
     39 H           4.8973   -2.2303    2.3216 H       1  UNL1        0.0618
     40 H           3.5227   -1.7167    0.3867 H       1  UNL1        0.0624
     41 H           2.6615    1.6241   -2.8443 H       1  UNL1        0.0621
     42 H           1.4365    3.4605   -1.8625 H       1  UNL1        0.0646
     43 H          -2.5241   -0.7034    0.5520 H       1  UNL1        0.0472
     44 H          -2.4001    0.6933   -0.2524 H       1  UNL1        0.0472
     45 H          -3.8931    1.8443    1.6564 H       1  UNL1        0.0425
     46 H          -7.5377   -0.3445    1.7291 H       1  UNL1        0.0464
     47 H          -6.6989   -1.8137    1.3622 H       1  UNL1        0.0464
     48 H          -8.3447   -0.1212   -0.3860 H       1  UNL1        0.0281
     49 H          -8.0144   -1.7958   -0.5443 H       1  UNL1        0.0281
     50 H          -6.8383   -0.0341   -2.1895 H       1  UNL1        0.0281
     51 H          -5.9240   -1.3602   -1.6910 H       1  UNL1        0.0281
     52 H          -4.6076    0.4653   -0.8095 H       1  UNL1        0.0464
     53 H          -5.9881    1.4470   -0.5125 H       1  UNL1        0.0464
     54 H          -2.2877    1.1373    3.5870 H       1  UNL1        0.0472
     55 H          -2.4360   -0.4441    3.2944 H       1  UNL1        0.0472
@<TRIPOS>BOND
     1     1     2    2
     2     2     3    1
     3     2    22   am
     4     3     4   ar
     5     3    20   ar
     6     4     5   ar
     7     5     6    1
     8     5    18   ar
     9     6     7    1
    10     7     8   ar
    11     7    17   ar
    12     8     9   ar
    13     9    10   ar
    14    10    11    2
    15    10    12   ar
    16    12    13   ar
    17    12    17   ar
    18    13    14   ar
    19    14    15   ar
    20    15    16   ar
    21    16    17   ar
    22    18    19   ar
    23    19    20   ar
    24    20    21    1
    25    22    23    1
    26    22    32    1
    27    23    24    1
    28    24    25    1
    29    24    32    1
    30    25    26    2
    31    25    27   am
    32    27    28    1
    33    27    31    1
    34    28    29    1
    35    29    30    1
    36    30    31    1
    37     4    33    1
    38     6    34    1
    39     6    35    1
    40     9    36    1
    41    13    37    1
    42    14    38    1
    43    15    39    1
    44    16    40    1
    45    18    41    1
    46    19    42    1
    47    23    43    1
    48    23    44    1
    49    24    45    1
    50    28    46    1
    51    28    47    1
    52    29    48    1
    53    29    49    1
    54    30    50    1
    55    30    51    1
    56    31    52    1
    57    31    53    1
    58    32    54    1
    59    32    55    1
@<TRIPOS>MOLECULE
../data/bude_mols_rdkit_confs2/molecule_100.pdb
 55 59 0 0 0
SMALL
GASTEIGER

@<TRIPOS>ATOM
      1  O1        -0.3540   -2.2660    1.1200 O.2     1  UNL1       -0.2699
      2  C1        -0.6080   -1.1580    0.5820 C.2     1  UNL1        0.2494
      3  C2         0.3790   -0.0900    0.6820 C.ar    1  UNL1        0.0723
      4  C3         1.4100    0.0950   -0.2120 C.ar    1  UNL1       -0.0433
      5  C4         2.3470    1.1040   -0.1130 C.ar    1  UNL1       -0.0406
      6  C5         3.3900    1.1990   -1.1480 C.3     1  UNL1        0.0171
      7  C6         4.4340    0.1350   -1.0300 C.ar    1  UNL1        0.0736
      8  N1         4.3090   -1.0140   -1.7440 N.ar    1  UNL1       -0.1750
      9  N2         5.1650   -2.0100   -1.6390 N.ar    1  UNL1       -0.2425
     10  C7         6.2320   -1.9510   -0.8060 C.ar    1  UNL1        0.2725
     11  O2         7.0430   -2.8940   -0.7050 O.2     1  UNL1       -0.2658
     12  C8         6.4250   -0.8190   -0.0530 C.ar    1  UNL1        0.0496
     13  C9         7.5120   -0.7230    0.7920 C.ar    1  UNL1       -0.0487
     14  C10        7.7330    0.4160    1.5460 C.ar    1  UNL1       -0.0610
     15  C11        6.8250    1.4420    1.4140 C.ar    1  UNL1       -0.0611
     16  C12        5.7310    1.3540    0.5690 C.ar    1  UNL1       -0.0521
     17  C13        5.5060    0.2220   -0.1820 C.ar    1  UNL1        0.0106
     18  C14        2.2640    1.9780    0.9230 C.ar    1  UNL1       -0.0555
     19  C15        1.2300    1.8270    1.8600 C.ar    1  UNL1       -0.0254
     20  C16        0.3140    0.8140    1.7320 C.ar    1  UNL1        0.1355
     21  F1        -0.6510    0.7470    2.6880 F       1  UNL1       -0.2047
     22  N3        -1.8410   -1.0060   -0.0930 N.am    1  UNL1       -0.2959
     23  C17       -2.4900    0.0600   -0.8100 C.3     1  UNL1        0.0276
     24  C18       -3.3560   -0.9420   -1.4810 C.3     1  UNL1        0.0671
     25  C19       -4.7800   -0.6620   -1.6670 C.2     1  UNL1        0.2217
     26  O3        -5.1520   -0.6230   -2.9090 O.2     1  UNL1       -0.2752
     27  N4        -5.7710   -0.4370   -0.7100 N.am    1  UNL1       -0.3012
     28  C20       -5.6750   -0.3910    0.7150 C.3     1  UNL1        0.0147
     29  C21       -6.7790    0.5870    1.1550 C.3     1  UNL1       -0.0357
     30  C22       -7.5170    0.9640   -0.1210 C.3     1  UNL1       -0.0357
     31  C23       -7.1920   -0.2160   -1.0250 C.3     1  UNL1        0.0147
     32  C24       -2.9740   -1.8440   -0.3530 C.3     1  UNL1        0.0276
     33 H           1.4869   -0.5611   -1.0049 H       1  UNL1        0.0629
     34 H           3.8661    2.1536   -1.0647 H       1  UNL1        0.0377
     35 H           2.9106    1.0710   -2.0960 H       1  UNL1        0.0377
     36 H           5.0254   -2.8199   -2.1810 H       1  UNL1        0.1921
     37 H           8.1711   -1.5140    0.8627 H       1  UNL1        0.0625
     38 H           8.5437    0.4929    2.1800 H       1  UNL1        0.0618
     39 H           6.9638    2.3050    1.9625 H       1  UNL1        0.0618
     40 H           5.0753    2.1480    0.5013 H       1  UNL1        0.0624
     41 H           2.9510    2.7419    1.0199 H       1  UNL1        0.0621
     42 H           1.1582    2.4841    2.6525 H       1  UNL1        0.0646
     43 H          -1.8463    0.5989   -1.4734 H       1  UNL1        0.0472
     44 H          -2.9172    0.8903   -0.2875 H       1  UNL1        0.0472
     45 H          -3.2277   -1.1929   -2.5132 H       1  UNL1        0.0425
     46 H          -4.7128   -0.0327    1.0161 H       1  UNL1        0.0464
     47 H          -5.7933   -1.3577    1.1581 H       1  UNL1        0.0464
     48 H          -6.3503    1.4554    1.6100 H       1  UNL1        0.0281
     49 H          -7.4339    0.1483    1.8786 H       1  UNL1        0.0281
     50 H          -7.1472    1.8814   -0.5290 H       1  UNL1        0.0281
     51 H          -8.5650    1.1305    0.0162 H       1  UNL1        0.0281
     52 H          -7.7853   -1.0721   -0.7803 H       1  UNL1        0.0464
     53 H          -7.3892   -0.0412   -2.0620 H       1  UNL1        0.0464
     54 H          -3.6876   -1.8786    0.4436 H       1  UNL1        0.0472
     55 H          -2.8540   -2.8958   -0.5084 H       1  UNL1        0.0472
@<TRIPOS>BOND
     1     1     2    2
     2     2     3    1
     3     2    22   am
     4     3     4   ar
     5     3    20   ar
     6     4     5   ar
     7     5     6    1
     8     5    18   ar
     9     6     7    1
    10     7     8   ar
    11     7    17   ar
    12     8     9   ar
    13     9    10   ar
    14    10    11    2
    15    10    12   ar
    16    12    13   ar
    17    12    17   ar
    18    13    14   ar
    19    14    15   ar
    20    15    16   ar
    21    16    17   ar
    22    18    19   ar
    23    19    20   ar
    24    20    21    1
    25    22    23    1
    26    22    32    1
    27    23    24    1
    28    24    25    1
    29    24    32    1
    30    25    26    2
    31    25    27   am
    32    27    28    1
    33    27    31    1
    34    28    29    1
    35    29    30    1
    36    30    31    1
    37     4    33    1
    38     6    34    1
    39     6    35    1
    40     9    36    1
    41    13    37    1
    42    14    38    1
    43    15    39    1
    44    16    40    1
    45    18    41    1
    46    19    42    1
    47    23    43    1
    48    23    44    1
    49    24    45    1
    50    28    46    1
    51    28    47    1
    52    29    48    1
    53    29    49    1
    54    30    50    1
    55    30    51    1
    56    31    52    1
    57    31    53    1
    58    32    54    1
    59    32    55    1
@<TRIPOS>MOLECULE
../data/bude_mols_rdkit_confs2/molecule_100.pdb
 55 59 0 0 0
SMALL
GASTEIGER

@<TRIPOS>ATOM
      1  O1        -1.3640    1.8290    2.7940 O.2     1  UNL1       -0.2699
      2  C1        -1.0240    0.9550    1.9580 C.2     1  UNL1        0.2494
      3  C2         0.2190    0.2360    2.2320 C.ar    1  UNL1        0.0723
      4  C3         1.4360    0.7270    1.7430 C.ar    1  UNL1       -0.0433
      5  C4         2.6170    0.0570    1.9950 C.ar    1  UNL1       -0.0406
      6  C5         3.8760    0.5790    1.4790 C.3     1  UNL1        0.0171
      7  C6         4.2570    0.1010    0.1460 C.ar    1  UNL1        0.0736
      8  N1         3.5490   -0.7540   -0.6030 N.ar    1  UNL1       -0.1750
      9  N2         3.9220   -1.1560   -1.7860 N.ar    1  UNL1       -0.2425
     10  C7         5.0600   -0.7240   -2.3280 C.ar    1  UNL1        0.2725
     11  O2         5.4240   -1.1140   -3.4790 O.2     1  UNL1       -0.2658
     12  C8         5.8540    0.1510   -1.6450 C.ar    1  UNL1        0.0496
     13  C9         7.0230    0.6030   -2.1850 C.ar    1  UNL1       -0.0487
     14  C10        7.8090    1.4960   -1.4590 C.ar    1  UNL1       -0.0610
     15  C11        7.4230    1.9270   -0.2060 C.ar    1  UNL1       -0.0611
     16  C12        6.2380    1.4480    0.3040 C.ar    1  UNL1       -0.0521
     17  C13        5.4390    0.5620   -0.3940 C.ar    1  UNL1        0.0106
     18  C14        2.5060   -1.0950    2.7400 C.ar    1  UNL1       -0.0555
     19  C15        1.3240   -1.5960    3.2310 C.ar    1  UNL1       -0.0254
     20  C16        0.1640   -0.9060    2.9630 C.ar    1  UNL1        0.1355
     21  F1        -1.0110   -1.4160    3.4580 F       1  UNL1       -0.2047
     22  N3        -1.7950    0.6740    0.8070 N.am    1  UNL1       -0.2959
     23  C17       -1.7060   -0.2300   -0.3220 C.3     1  UNL1        0.0276
     24  C18       -3.1060    0.1060   -0.7170 C.3     1  UNL1        0.0671
     25  C19       -4.1250   -0.9080   -0.3930 C.2     1  UNL1        0.2217
     26  O3        -3.7420   -1.9570    0.1810 O.2     1  UNL1       -0.2752
     27  N4        -5.4880   -0.6970   -0.7210 N.am    1  UNL1       -0.3012
     28  C20       -6.0230    0.4750   -1.3800 C.3     1  UNL1        0.0147
     29  C21       -7.0380   -0.1620   -2.3280 C.3     1  UNL1       -0.0357
     30  C22       -7.7080   -1.1580   -1.3930 C.3     1  UNL1       -0.0357
     31  C23       -6.6050   -1.5770   -0.4780 C.3     1  UNL1        0.0147
     32  C24       -3.0440    1.2210    0.2940 C.3     1  UNL1        0.0276
     33 H           1.4504    1.5977    1.1891 H       1  UNL1        0.0629
     34 H           4.6520    0.3040    2.1624 H       1  UNL1        0.0377
     35 H           3.7399    1.6361    1.3849 H       1  UNL1        0.0377
     36 H           3.3552   -1.7872   -2.2855 H       1  UNL1        0.1921
     37 H           7.3218    0.2869   -3.1209 H       1  UNL1        0.0625
     38 H           8.6933    1.8403   -1.8646 H       1  UNL1        0.0618
     39 H           8.0050    2.5881    0.3318 H       1  UNL1        0.0618
     40 H           5.9355    1.7610    1.2397 H       1  UNL1        0.0624
     41 H           3.3710   -1.6194    2.9443 H       1  UNL1        0.0621
     42 H           1.3069   -2.4661    3.7856 H       1  UNL1        0.0646
     43 H          -1.5652   -1.2549   -0.0487 H       1  UNL1        0.0472
     44 H          -0.9093   -0.1300   -1.0292 H       1  UNL1        0.0472
     45 H          -3.3616    0.2598   -1.7446 H       1  UNL1        0.0425
     46 H          -5.2638    1.0055   -1.9158 H       1  UNL1        0.0464
     47 H          -6.4370    1.2044   -0.7156 H       1  UNL1        0.0464
     48 H          -6.5576   -0.6527   -3.1486 H       1  UNL1        0.0281
     49 H          -7.7075    0.5307   -2.7937 H       1  UNL1        0.0281
     50 H          -8.0913   -1.9953   -1.9379 H       1  UNL1        0.0281
     51 H          -8.5448   -0.7415   -0.8722 H       1  UNL1        0.0281
     52 H          -6.9224   -1.4931    0.5404 H       1  UNL1        0.0464
     53 H          -6.3306   -2.5956   -0.6572 H       1  UNL1        0.0464
     54 H          -2.9515    2.1969   -0.1350 H       1  UNL1        0.0472
     55 H          -3.8678    1.4069    0.9511 H       1  UNL1        0.0472
@<TRIPOS>BOND
     1     1     2    2
     2     2     3    1
     3     2    22   am
     4     3     4   ar
     5     3    20   ar
     6     4     5   ar
     7     5     6    1
     8     5    18   ar
     9     6     7    1
    10     7     8   ar
    11     7    17   ar
    12     8     9   ar
    13     9    10   ar
    14    10    11    2
    15    10    12   ar
    16    12    13   ar
    17    12    17   ar
    18    13    14   ar
    19    14    15   ar
    20    15    16   ar
    21    16    17   ar
    22    18    19   ar
    23    19    20   ar
    24    20    21    1
    25    22    23    1
    26    22    32    1
    27    23    24    1
    28    24    25    1
    29    24    32    1
    30    25    26    2
    31    25    27   am
    32    27    28    1
    33    27    31    1
    34    28    29    1
    35    29    30    1
    36    30    31    1
    37     4    33    1
    38     6    34    1
    39     6    35    1
    40     9    36    1
    41    13    37    1
    42    14    38    1
    43    15    39    1
    44    16    40    1
    45    18    41    1
    46    19    42    1
    47    23    43    1
    48    23    44    1
    49    24    45    1
    50    28    46    1
    51    28    47    1
    52    29    48    1
    53    29    49    1
    54    30    50    1
    55    30    51    1
    56    31    52    1
    57    31    53    1
    58    32    54    1
    59    32    55    1
@<TRIPOS>MOLECULE
../data/bude_mols_rdkit_confs2/molecule_100.pdb
 55 59 0 0 0
SMALL
GASTEIGER

@<TRIPOS>ATOM
      1  O1         1.2600   -0.8790    3.3180 O.2     1  UNL1       -0.2699
      2  C1         0.7900   -0.4760    2.1970 C.2     1  UNL1        0.2494
      3  C2        -0.4920    0.2230    2.2030 C.ar    1  UNL1        0.0723
      4  C3        -1.6470   -0.4840    2.0880 C.ar    1  UNL1       -0.0433
      5  C4        -2.8830    0.1800    2.1060 C.ar    1  UNL1       -0.0406
      6  C5        -4.0940   -0.6660    2.0060 C.3     1  UNL1        0.0171
      7  C6        -4.3060   -1.1590    0.6320 C.ar    1  UNL1        0.0736
      8  N1        -3.8010   -2.3860    0.2740 N.ar    1  UNL1       -0.1750
      9  N2        -3.9040   -2.8670   -0.9440 N.ar    1  UNL1       -0.2425
     10  C7        -4.5120   -2.1960   -1.9360 C.ar    1  UNL1        0.2725
     11  O2        -4.6080   -2.6490   -3.0860 O.2     1  UNL1       -0.2658
     12  C8        -5.0440   -0.9490   -1.6310 C.ar    1  UNL1        0.0496
     13  C9        -5.6940   -0.2120   -2.5830 C.ar    1  UNL1       -0.0487
     14  C10       -6.2490    1.0220   -2.3030 C.ar    1  UNL1       -0.0610
     15  C11       -6.1500    1.5310   -1.0350 C.ar    1  UNL1       -0.0611
     16  C12       -5.4960    0.8030   -0.0610 C.ar    1  UNL1       -0.0521
     17  C13       -4.9370   -0.4330   -0.3350 C.ar    1  UNL1        0.0106
     18  C14       -2.9310    1.5470    2.2410 C.ar    1  UNL1       -0.0555
     19  C15       -1.7390    2.2820    2.3590 C.ar    1  UNL1       -0.0254
     20  C16       -0.5510    1.5930    2.3370 C.ar    1  UNL1        0.1355
     21  F1         0.5900    2.2860    2.4490 F       1  UNL1       -0.2047
     22  N3         1.5560   -0.7420    1.0410 N.am    1  UNL1       -0.2959
     23  C17        1.4350   -0.4880   -0.3770 C.3     1  UNL1        0.0276
     24  C18        2.9270   -0.6620   -0.5110 C.3     1  UNL1        0.0671
     25  C19        3.7300    0.5790   -0.3780 C.2     1  UNL1        0.2217
     26  O3         3.0820    1.6460   -0.1360 O.2     1  UNL1       -0.2752
     27  N4         5.1290    0.5520   -0.5150 N.am    1  UNL1       -0.3012
     28  C20        5.9230   -0.6160   -0.7870 C.3     1  UNL1        0.0147
     29  C21        6.9620   -0.0760   -1.7610 C.3     1  UNL1       -0.0357
     30  C22        6.9080    1.4320   -1.6590 C.3     1  UNL1       -0.0357
     31  C23        6.0420    1.6630   -0.4180 C.3     1  UNL1        0.0147
     32  C24        2.8110   -1.4020    0.7750 C.3     1  UNL1        0.0276
     33 H          -1.6149   -1.5106    1.9873 H       1  UNL1        0.0629
     34 H          -4.9450   -0.0889    2.3021 H       1  UNL1        0.0377
     35 H          -3.9618   -1.5129    2.6465 H       1  UNL1        0.0377
     36 H          -3.5209   -3.7531   -1.1371 H       1  UNL1        0.1921
     37 H          -5.7722   -0.5896   -3.5402 H       1  UNL1        0.0625
     38 H          -6.7335    1.5551   -3.0420 H       1  UNL1        0.0618
     39 H          -6.5607    2.4506   -0.8097 H       1  UNL1        0.0618
     40 H          -5.4223    1.1894    0.8931 H       1  UNL1        0.0624
     41 H          -3.8413    2.0330    2.2557 H       1  UNL1        0.0621
     42 H          -1.7558    3.3090    2.4592 H       1  UNL1        0.0646
     43 H           1.0825    0.4926   -0.6201 H       1  UNL1        0.0472
     44 H           0.7592   -1.0564   -0.9812 H       1  UNL1        0.0472
     45 H           3.3763   -1.0499   -1.4012 H       1  UNL1        0.0425
     46 H           5.3351   -1.3894   -1.2356 H       1  UNL1        0.0464
     47 H           6.3452   -1.0630    0.0887 H       1  UNL1        0.0464
     48 H           6.7300   -0.3870   -2.7582 H       1  UNL1        0.0281
     49 H           7.9389   -0.4437   -1.5259 H       1  UNL1        0.0281
     50 H           6.4553    1.8602   -2.5288 H       1  UNL1        0.0281
     51 H           7.8750    1.8845   -1.5883 H       1  UNL1        0.0281
     52 H           6.6216    1.6191    0.4803 H       1  UNL1        0.0464
     53 H           5.5697    2.6224   -0.3797 H       1  UNL1        0.0464
     54 H           2.7314   -2.4631    0.6628 H       1  UNL1        0.0472
     55 H           3.6037   -1.3681    1.4929 H       1  UNL1        0.0472
@<TRIPOS>BOND
     1     1     2    2
     2     2     3    1
     3     2    22   am
     4     3     4   ar
     5     3    20   ar
     6     4     5   ar
     7     5     6    1
     8     5    18   ar
     9     6     7    1
    10     7     8   ar
    11     7    17   ar
    12     8     9   ar
    13     9    10   ar
    14    10    11    2
    15    10    12   ar
    16    12    13   ar
    17    12    17   ar
    18    13    14   ar
    19    14    15   ar
    20    15    16   ar
    21    16    17   ar
    22    18    19   ar
    23    19    20   ar
    24    20    21    1
    25    22    23    1
    26    22    32    1
    27    23    24    1
    28    24    25    1
    29    24    32    1
    30    25    26    2
    31    25    27   am
    32    27    28    1
    33    27    31    1
    34    28    29    1
    35    29    30    1
    36    30    31    1
    37     4    33    1
    38     6    34    1
    39     6    35    1
    40     9    36    1
    41    13    37    1
    42    14    38    1
    43    15    39    1
    44    16    40    1
    45    18    41    1
    46    19    42    1
    47    23    43    1
    48    23    44    1
    49    24    45    1
    50    28    46    1
    51    28    47    1
    52    29    48    1
    53    29    49    1
    54    30    50    1
    55    30    51    1
    56    31    52    1
    57    31    53    1
    58    32    54    1
    59    32    55    1
@<TRIPOS>MOLECULE
../data/bude_mols_rdkit_confs2/molecule_100.pdb
 55 59 0 0 0
SMALL
GASTEIGER

@<TRIPOS>ATOM
      1  O1         0.0500    2.5360   -0.4760 O.2     1  UNL1       -0.2699
      2  C1         0.4270    1.3400   -0.3810 C.2     1  UNL1        0.2494
      3  C2        -0.4630    0.3080   -0.9120 C.ar    1  UNL1        0.0723
      4  C3        -1.4360   -0.2830   -0.1090 C.ar    1  UNL1       -0.0433
      5  C4        -2.2770   -1.2450   -0.5860 C.ar    1  UNL1       -0.0406
      6  C5        -3.3240   -1.8640    0.2660 C.3     1  UNL1        0.0171
      7  C6        -4.7010   -1.4720   -0.0900 C.ar    1  UNL1        0.0736
      8  N1        -5.4480   -2.2610   -0.9280 N.ar    1  UNL1       -0.1750
      9  N2        -6.6660   -1.9280   -1.3160 N.ar    1  UNL1       -0.2425
     10  C7        -7.2480   -0.7880   -0.9080 C.ar    1  UNL1        0.2725
     11  O2        -8.4220   -0.4710   -1.2850 O.2     1  UNL1       -0.2658
     12  C8        -6.5730    0.0470   -0.0750 C.ar    1  UNL1        0.0496
     13  C9        -7.1560    1.2100    0.3650 C.ar    1  UNL1       -0.0487
     14  C10       -6.4640    2.0460    1.2270 C.ar    1  UNL1       -0.0610
     15  C11       -5.1920    1.7300    1.6550 C.ar    1  UNL1       -0.0611
     16  C12       -4.6520    0.5510    1.1830 C.ar    1  UNL1       -0.0521
     17  C13       -5.2890   -0.3140    0.3280 C.ar    1  UNL1        0.0106
     18  C14       -2.1470   -1.6370   -1.9130 C.ar    1  UNL1       -0.0555
     19  C15       -1.1880   -1.0550   -2.7020 C.ar    1  UNL1       -0.0254
     20  C16       -0.3360   -0.0800   -2.2220 C.ar    1  UNL1        0.1355
     21  F1         0.6100    0.5010   -2.9850 F       1  UNL1       -0.2047
     22  N3         1.6580    0.9630    0.2100 N.am    1  UNL1       -0.2959
     23  C17        2.7560    1.6690    0.8190 C.3     1  UNL1        0.0276
     24  C18        3.1400    0.4020    1.5290 C.3     1  UNL1        0.0671
     25  C19        4.5570    0.0800    1.6560 C.2     1  UNL1        0.2217
     26  O3         4.9650   -0.1060    2.8710 O.2     1  UNL1       -0.2752
     27  N4         5.5120   -0.0510    0.6350 N.am    1  UNL1       -0.3012
     28  C20        5.5100    0.0780   -0.7830 C.3     1  UNL1        0.0147
     29  C21        6.8470    0.8050   -1.0340 C.3     1  UNL1       -0.0357
     30  C22        7.7580   -0.0280   -0.1910 C.3     1  UNL1       -0.0357
     31  C23        6.9120   -0.4290    0.9640 C.3     1  UNL1        0.0147
     32  C24        2.3410   -0.2780    0.4570 C.3     1  UNL1        0.0276
     33 H          -1.5229    0.0157    0.8750 H       1  UNL1        0.0629
     34 H          -3.1446   -1.5763    1.2809 H       1  UNL1        0.0377
     35 H          -3.2565   -2.9215    0.1177 H       1  UNL1        0.0377
     36 H          -7.1593   -2.5300   -1.9189 H       1  UNL1        0.1921
     37 H          -8.1076    1.4610    0.0544 H       1  UNL1        0.0625
     38 H          -6.9077    2.9186    1.5536 H       1  UNL1        0.0618
     39 H          -4.6690    2.3455    2.2974 H       1  UNL1        0.0618
     40 H          -3.7006    0.3015    1.4953 H       1  UNL1        0.0624
     41 H          -2.7690   -2.3624   -2.3027 H       1  UNL1        0.0621
     42 H          -1.1003   -1.3552   -3.6855 H       1  UNL1        0.0646
     43 H           2.4613    2.4665    1.4687 H       1  UNL1        0.0472
     44 H           3.4660    2.2030    0.2226 H       1  UNL1        0.0472
     45 H           2.9663    0.2414    2.5725 H       1  UNL1        0.0425
     46 H           4.6793    0.6621   -1.1201 H       1  UNL1        0.0464
     47 H           5.4177   -0.8525   -1.3032 H       1  UNL1        0.0464
     48 H           6.8153    1.8210   -0.6999 H       1  UNL1        0.0281
     49 H           7.1311    0.8833   -2.0626 H       1  UNL1        0.0281
     50 H           8.6019    0.5429    0.1357 H       1  UNL1        0.0281
     51 H           8.1566   -0.8678   -0.7210 H       1  UNL1        0.0281
     52 H           6.9798   -1.4856    1.1189 H       1  UNL1        0.0464
     53 H           7.2365    0.0577    1.8599 H       1  UNL1        0.0464
     54 H           2.9230   -0.6320   -0.3682 H       1  UNL1        0.0472
     55 H           1.7941   -1.1740    0.6645 H       1  UNL1        0.0472
@<TRIPOS>BOND
     1     1     2    2
     2     2     3    1
     3     2    22   am
     4     3     4   ar
     5     3    20   ar
     6     4     5   ar
     7     5     6    1
     8     5    18   ar
     9     6     7    1
    10     7     8   ar
    11     7    17   ar
    12     8     9   ar
    13     9    10   ar
    14    10    11    2
    15    10    12   ar
    16    12    13   ar
    17    12    17   ar
    18    13    14   ar
    19    14    15   ar
    20    15    16   ar
    21    16    17   ar
    22    18    19   ar
    23    19    20   ar
    24    20    21    1
    25    22    23    1
    26    22    32    1
    27    23    24    1
    28    24    25    1
    29    24    32    1
    30    25    26    2
    31    25    27   am
    32    27    28    1
    33    27    31    1
    34    28    29    1
    35    29    30    1
    36    30    31    1
    37     4    33    1
    38     6    34    1
    39     6    35    1
    40     9    36    1
    41    13    37    1
    42    14    38    1
    43    15    39    1
    44    16    40    1
    45    18    41    1
    46    19    42    1
    47    23    43    1
    48    23    44    1
    49    24    45    1
    50    28    46    1
    51    28    47    1
    52    29    48    1
    53    29    49    1
    54    30    50    1
    55    30    51    1
    56    31    52    1
    57    31    53    1
    58    32    54    1
    59    32    55    1
@<TRIPOS>MOLECULE
../data/bude_mols_rdkit_confs2/molecule_100.pdb
 55 59 0 0 0
SMALL
GASTEIGER

@<TRIPOS>ATOM
      1  O1         0.1380   -0.3430    3.3050 O.2     1  UNL1       -0.2699
      2  C1        -0.3240   -0.3240    2.1400 C.2     1  UNL1        0.2494
      3  C2         0.5140   -0.7240    1.0200 C.ar    1  UNL1        0.0723
      4  C3         1.2900    0.1780    0.3390 C.ar    1  UNL1       -0.0433
      5  C4         2.0950   -0.1950   -0.7490 C.ar    1  UNL1       -0.0406
      6  C5         2.8980    0.8050   -1.4760 C.3     1  UNL1        0.0171
      7  C6         4.0820    1.1520   -0.7050 C.ar    1  UNL1        0.0736
      8  N1         4.0030    2.2030    0.1290 N.ar    1  UNL1       -0.1750
      9  N2         4.9760    2.5850    0.9210 N.ar    1  UNL1       -0.2425
     10  C7         6.1310    1.8930    0.9100 C.ar    1  UNL1        0.2725
     11  O2         7.0650    2.2630    1.6750 O.2     1  UNL1       -0.2658
     12  C8         6.3270    0.7980    0.0950 C.ar    1  UNL1        0.0496
     13  C9         7.5190    0.1050    0.0750 C.ar    1  UNL1       -0.0487
     14  C10        7.6620   -0.9640   -0.7720 C.ar    1  UNL1       -0.0610
     15  C11        6.6190   -1.3470   -1.6050 C.ar    1  UNL1       -0.0611
     16  C12        5.4230   -0.6180   -1.5550 C.ar    1  UNL1       -0.0521
     17  C13        5.2450    0.4460   -0.7270 C.ar    1  UNL1        0.0106
     18  C14        2.0580   -1.5060   -1.0870 C.ar    1  UNL1       -0.0555
     19  C15        1.2840   -2.4470   -0.4190 C.ar    1  UNL1       -0.0254
     20  C16        0.5210   -2.0490    0.6250 C.ar    1  UNL1        0.1355
     21  F1        -0.2500   -2.9180    1.3100 F       1  UNL1       -0.2047
     22  N3        -1.6830    0.0910    1.8900 N.am    1  UNL1       -0.2959
     23  C17       -2.7560    0.5320    2.7030 C.3     1  UNL1        0.0276
     24  C18       -3.6090    0.7530    1.5150 C.3     1  UNL1        0.0671
     25  C19       -4.8140   -0.1210    1.4040 C.2     1  UNL1        0.2217
     26  O3        -5.1070   -0.9670    2.2870 O.2     1  UNL1       -0.2752
     27  N4        -5.6170    0.0570    0.2390 N.am    1  UNL1       -0.3012
     28  C20       -5.4100    0.9840   -0.8560 C.3     1  UNL1        0.0147
     29  C21       -6.6400    0.9170   -1.6930 C.3     1  UNL1       -0.0357
     30  C22       -7.0770   -0.5340   -1.4930 C.3     1  UNL1       -0.0357
     31  C23       -6.8190   -0.7190   -0.0150 C.3     1  UNL1        0.0147
     32  C24       -2.4760    0.2150    0.7210 C.3     1  UNL1        0.0276
     33 H           1.2821    1.1661    0.6367 H       1  UNL1        0.0629
     34 H           2.3090    1.6841   -1.6350 H       1  UNL1        0.0377
     35 H           3.2006    0.3944   -2.4166 H       1  UNL1        0.0377
     36 H           4.8640    3.3637    1.5129 H       1  UNL1        0.1921
     37 H           8.2964    0.3882    0.6918 H       1  UNL1        0.0625
     38 H           8.5511   -1.4876   -0.7905 H       1  UNL1        0.0618
     39 H           6.7221   -2.1494   -2.2457 H       1  UNL1        0.0618
     40 H           4.6454   -0.9003   -2.1720 H       1  UNL1        0.0624
     41 H           2.6347   -1.8226   -1.8821 H       1  UNL1        0.0621
     42 H           1.2910   -3.4356   -0.7151 H       1  UNL1        0.0646
     43 H          -2.5424    1.4244    3.2534 H       1  UNL1        0.0472
     44 H          -3.1075   -0.0891    3.5002 H       1  UNL1        0.0472
     45 H          -4.0705    1.7036    1.3470 H       1  UNL1        0.0425
     46 H          -4.5543    0.6955   -1.4299 H       1  UNL1        0.0464
     47 H          -5.2341    1.9772   -0.4990 H       1  UNL1        0.0464
     48 H          -6.4231    1.1202   -2.7209 H       1  UNL1        0.0281
     49 H          -7.3864    1.6349   -1.4239 H       1  UNL1        0.0281
     50 H          -6.4868   -1.2056   -2.0809 H       1  UNL1        0.0281
     51 H          -8.0853   -0.7333   -1.7905 H       1  UNL1        0.0281
     52 H          -7.6394   -0.3472    0.5625 H       1  UNL1        0.0464
     53 H          -6.7060   -1.7482    0.2548 H       1  UNL1        0.0464
     54 H          -2.6880   -0.7174    0.2407 H       1  UNL1        0.0472
     55 H          -2.1051    0.7650   -0.1186 H       1  UNL1        0.0472
@<TRIPOS>BOND
     1     1     2    2
     2     2     3    1
     3     2    22   am
     4     3     4   ar
     5     3    20   ar
     6     4     5   ar
     7     5     6    1
     8     5    18   ar
     9     6     7    1
    10     7     8   ar
    11     7    17   ar
    12     8     9   ar
    13     9    10   ar
    14    10    11    2
    15    10    12   ar
    16    12    13   ar
    17    12    17   ar
    18    13    14   ar
    19    14    15   ar
    20    15    16   ar
    21    16    17   ar
    22    18    19   ar
    23    19    20   ar
    24    20    21    1
    25    22    23    1
    26    22    32    1
    27    23    24    1
    28    24    25    1
    29    24    32    1
    30    25    26    2
    31    25    27   am
    32    27    28    1
    33    27    31    1
    34    28    29    1
    35    29    30    1
    36    30    31    1
    37     4    33    1
    38     6    34    1
    39     6    35    1
    40     9    36    1
    41    13    37    1
    42    14    38    1
    43    15    39    1
    44    16    40    1
    45    18    41    1
    46    19    42    1
    47    23    43    1
    48    23    44    1
    49    24    45    1
    50    28    46    1
    51    28    47    1
    52    29    48    1
    53    29    49    1
    54    30    50    1
    55    30    51    1
    56    31    52    1
    57    31    53    1
    58    32    54    1
    59    32    55    1
@<TRIPOS>MOLECULE
../data/bude_mols_rdkit_confs2/molecule_100.pdb
 55 59 0 0 0
SMALL
GASTEIGER

@<TRIPOS>ATOM
      1  O1         0.0090    1.0500    1.7400 O.2     1  UNL1       -0.2699
      2  C1        -0.3380    0.2720    0.7760 C.2     1  UNL1        0.2494
      3  C2         0.6450   -0.7300    0.4240 C.ar    1  UNL1        0.0723
      4  C3         1.6490   -0.5460   -0.5000 C.ar    1  UNL1       -0.0433
      5  C4         2.5690   -1.4980   -0.8140 C.ar    1  UNL1       -0.0406
      6  C5         3.6890   -1.3310   -1.7940 C.3     1  UNL1        0.0171
      7  C6         4.9870   -1.3160   -1.0870 C.ar    1  UNL1        0.0736
      8  N1         5.7090   -2.4790   -0.9850 N.ar    1  UNL1       -0.1750
      9  N2         6.8510   -2.5520   -0.3290 N.ar    1  UNL1       -0.2425
     10  C7         7.3530   -1.4600    0.2750 C.ar    1  UNL1        0.2725
     11  O2         8.4460   -1.4910    0.9160 O.2     1  UNL1       -0.2658
     12  C8         6.7060   -0.2480    0.2290 C.ar    1  UNL1        0.0496
     13  C9         7.2140    0.8760    0.8310 C.ar    1  UNL1       -0.0487
     14  C10        6.5490    2.0820    0.7570 C.ar    1  UNL1       -0.0610
     15  C11        5.3590    2.1390    0.0640 C.ar    1  UNL1       -0.0611
     16  C12        4.8230    1.0030   -0.5570 C.ar    1  UNL1       -0.0521
     17  C13        5.4920   -0.2000   -0.4770 C.ar    1  UNL1        0.0106
     18  C14        2.5220   -2.7430   -0.1870 C.ar    1  UNL1       -0.0555
     19  C15        1.5320   -2.9510    0.7370 C.ar    1  UNL1       -0.0254
     20  C16        0.6050   -1.9560    1.0380 C.ar    1  UNL1        0.1355
     21  F1        -0.3280   -2.2670    1.9610 F       1  UNL1       -0.2047
     22  N3        -1.5870    0.4170    0.1400 N.am    1  UNL1       -0.2959
     23  C17       -2.2980   -0.2340   -0.9260 C.3     1  UNL1        0.0276
     24  C18       -3.5620    0.0890   -0.1170 C.3     1  UNL1        0.0671
     25  C19       -4.7480    0.3400   -0.9290 C.2     1  UNL1        0.2217
     26  O3        -4.6240    0.2680   -2.1870 O.2     1  UNL1       -0.2752
     27  N4        -6.0250    0.6580   -0.4180 N.am    1  UNL1       -0.3012
     28  C20       -7.2350    0.9170   -1.1640 C.3     1  UNL1        0.0147
     29  C21       -7.9300    1.9570   -0.3170 C.3     1  UNL1       -0.0357
     30  C22       -7.3720    1.8020    1.0630 C.3     1  UNL1       -0.0357
     31  C23       -6.2970    0.7650    0.9990 C.3     1  UNL1        0.0147
     32  C24       -2.7210    1.2930    0.2750 C.3     1  UNL1        0.0276
     33 H           1.7070    0.3650   -0.9814 H       1  UNL1        0.0629
     34 H           3.5629   -0.4085   -2.3212 H       1  UNL1        0.0377
     35 H           3.6757   -2.1498   -2.4827 H       1  UNL1        0.0377
     36 H           7.3367   -3.4070   -0.2814 H       1  UNL1        0.1921
     37 H           8.1062    0.8179    1.3463 H       1  UNL1        0.0625
     38 H           6.9346    2.9246    1.2113 H       1  UNL1        0.0618
     39 H           4.8527    3.0361    0.0012 H       1  UNL1        0.0618
     40 H           3.9311    1.0665   -1.0722 H       1  UNL1        0.0624
     41 H           3.2080   -3.4807   -0.4109 H       1  UNL1        0.0621
     42 H           1.4720   -3.8616    1.2188 H       1  UNL1        0.0646
     43 H          -2.0873   -1.2767   -1.0415 H       1  UNL1        0.0472
     44 H          -2.1813    0.0414   -1.9534 H       1  UNL1        0.0472
     45 H          -4.0439   -0.5551    0.5886 H       1  UNL1        0.0425
     46 H          -7.8298    0.0321   -1.2540 H       1  UNL1        0.0464
     47 H          -7.0544    1.2385   -2.1685 H       1  UNL1        0.0464
     48 H          -8.9865    1.7878   -0.3124 H       1  UNL1        0.0281
     49 H          -7.7695    2.9443   -0.6970 H       1  UNL1        0.0281
     50 H          -8.1427    1.4882    1.7356 H       1  UNL1        0.0281
     51 H          -6.9782    2.7318    1.4170 H       1  UNL1        0.0281
     52 H          -5.4261    1.0816    1.5341 H       1  UNL1        0.0464
     53 H          -6.5844   -0.1653    1.4426 H       1  UNL1        0.0464
     54 H          -2.7477    2.1078   -0.4180 H       1  UNL1        0.0472
     55 H          -2.9073    1.8607    1.1626 H       1  UNL1        0.0472
@<TRIPOS>BOND
     1     1     2    2
     2     2     3    1
     3     2    22   am
     4     3     4   ar
     5     3    20   ar
     6     4     5   ar
     7     5     6    1
     8     5    18   ar
     9     6     7    1
    10     7     8   ar
    11     7    17   ar
    12     8     9   ar
    13     9    10   ar
    14    10    11    2
    15    10    12   ar
    16    12    13   ar
    17    12    17   ar
    18    13    14   ar
    19    14    15   ar
    20    15    16   ar
    21    16    17   ar
    22    18    19   ar
    23    19    20   ar
    24    20    21    1
    25    22    23    1
    26    22    32    1
    27    23    24    1
    28    24    25    1
    29    24    32    1
    30    25    26    2
    31    25    27   am
    32    27    28    1
    33    27    31    1
    34    28    29    1
    35    29    30    1
    36    30    31    1
    37     4    33    1
    38     6    34    1
    39     6    35    1
    40     9    36    1
    41    13    37    1
    42    14    38    1
    43    15    39    1
    44    16    40    1
    45    18    41    1
    46    19    42    1
    47    23    43    1
    48    23    44    1
    49    24    45    1
    50    28    46    1
    51    28    47    1
    52    29    48    1
    53    29    49    1
    54    30    50    1
    55    30    51    1
    56    31    52    1
    57    31    53    1
    58    32    54    1
    59    32    55    1
@<TRIPOS>MOLECULE
../data/bude_mols_rdkit_confs2/molecule_100.pdb
 55 59 0 0 0
SMALL
GASTEIGER

@<TRIPOS>ATOM
      1  O1        -0.9560    2.6560    1.4690 O.2     1  UNL1       -0.2699
      2  C1        -0.8730    1.4850    0.9690 C.2     1  UNL1        0.2494
      3  C2         0.4190    0.8340    1.0940 C.ar    1  UNL1        0.0723
      4  C3         1.3590    0.9920    0.1070 C.ar    1  UNL1       -0.0433
      5  C4         2.6170    0.3830    0.1690 C.ar    1  UNL1       -0.0406
      6  C5         3.5090    0.6340   -0.9880 C.3     1  UNL1        0.0171
      7  C6         4.6340   -0.3070   -0.9500 C.ar    1  UNL1        0.0736
      8  N1         4.6300   -1.4520   -1.6970 N.ar    1  UNL1       -0.1750
      9  N2         5.6280   -2.3040   -1.6450 N.ar    1  UNL1       -0.2425
     10  C7         6.7100   -2.1210   -0.8700 C.ar    1  UNL1        0.2725
     11  O2         7.6600   -2.9600   -0.8400 O.2     1  UNL1       -0.2658
     12  C8         6.7880   -0.9830   -0.0830 C.ar    1  UNL1        0.0496
     13  C9         7.8810   -0.7590    0.7100 C.ar    1  UNL1       -0.0487
     14  C10        7.9500    0.3740    1.4710 C.ar    1  UNL1       -0.0610
     15  C11        6.8960    1.2570    1.4050 C.ar    1  UNL1       -0.0611
     16  C12        5.7870    1.0590    0.6200 C.ar    1  UNL1       -0.0521
     17  C13        5.7120   -0.0870   -0.1530 C.ar    1  UNL1        0.0106
     18  C14        2.9110   -0.3910    1.2490 C.ar    1  UNL1       -0.0555
     19  C15        1.9710   -0.5600    2.2550 C.ar    1  UNL1       -0.0254
     20  C16        0.7350    0.0450    2.1820 C.ar    1  UNL1        0.1355
     21  F1        -0.1320   -0.1660    3.2020 F       1  UNL1       -0.2047
     22  N3        -1.9750    0.8670    0.3340 N.am    1  UNL1       -0.2959
     23  C17       -3.3450    1.2100    0.0480 C.3     1  UNL1        0.0276
     24  C18       -3.6510   -0.2750    0.0570 C.3     1  UNL1        0.0671
     25  C19       -4.6380   -0.7420   -0.9370 C.2     1  UNL1        0.2217
     26  O3        -4.3120   -1.5930   -1.8140 O.2     1  UNL1       -0.2752
     27  N4        -5.9400   -0.2200   -0.8830 N.am    1  UNL1       -0.3012
     28  C20       -7.0010   -0.5880   -1.7890 C.3     1  UNL1        0.0147
     29  C21       -8.2100    0.2290   -1.4740 C.3     1  UNL1       -0.0357
     30  C22       -7.9340    0.7580   -0.0810 C.3     1  UNL1       -0.0357
     31  C23       -6.4250    0.7490    0.0660 C.3     1  UNL1        0.0147
     32  C24       -2.2050   -0.4010   -0.3150 C.3     1  UNL1        0.0276
     33 H           1.1301    1.5804   -0.7093 H       1  UNL1        0.0629
     34 H           3.8805    1.6364   -0.9414 H       1  UNL1        0.0377
     35 H           2.9612    0.4991   -1.8972 H       1  UNL1        0.0377
     36 H           5.5810   -3.1155   -2.2004 H       1  UNL1        0.1921
     37 H           8.6519   -1.4448    0.7332 H       1  UNL1        0.0625
     38 H           8.7654    0.5614    2.0752 H       1  UNL1        0.0618
     39 H           6.9419    2.1148    1.9769 H       1  UNL1        0.0618
     40 H           5.0227    1.7524    0.6065 H       1  UNL1        0.0624
     41 H           3.8319   -0.8515    1.3195 H       1  UNL1        0.0621
     42 H           2.2010   -1.1482    3.0712 H       1  UNL1        0.0646
     43 H          -3.4967    1.6909   -0.8957 H       1  UNL1        0.0472
     44 H          -3.8907    1.9002    0.6569 H       1  UNL1        0.0472
     45 H          -4.0948   -0.7906    0.8828 H       1  UNL1        0.0425
     46 H          -7.2290   -1.6269   -1.6723 H       1  UNL1        0.0464
     47 H          -6.6947   -0.4085   -2.7984 H       1  UNL1        0.0464
     48 H          -9.0925   -0.3760   -1.4844 H       1  UNL1        0.0281
     49 H          -8.3807    1.0084   -2.1870 H       1  UNL1        0.0281
     50 H          -8.3849    0.1256    0.6550 H       1  UNL1        0.0281
     51 H          -8.3399    1.7382    0.0583 H       1  UNL1        0.0281
     52 H          -6.0243    1.7167   -0.1528 H       1  UNL1        0.0464
     53 H          -6.1297    0.5020    1.0643 H       1  UNL1        0.0464
     54 H          -1.7009   -1.2291    0.1378 H       1  UNL1        0.0472
     55 H          -1.9030   -0.5716   -1.3272 H       1  UNL1        0.0472
@<TRIPOS>BOND
     1     1     2    2
     2     2     3    1
     3     2    22   am
     4     3     4   ar
     5     3    20   ar
     6     4     5   ar
     7     5     6    1
     8     5    18   ar
     9     6     7    1
    10     7     8   ar
    11     7    17   ar
    12     8     9   ar
    13     9    10   ar
    14    10    11    2
    15    10    12   ar
    16    12    13   ar
    17    12    17   ar
    18    13    14   ar
    19    14    15   ar
    20    15    16   ar
    21    16    17   ar
    22    18    19   ar
    23    19    20   ar
    24    20    21    1
    25    22    23    1
    26    22    32    1
    27    23    24    1
    28    24    25    1
    29    24    32    1
    30    25    26    2
    31    25    27   am
    32    27    28    1
    33    27    31    1
    34    28    29    1
    35    29    30    1
    36    30    31    1
    37     4    33    1
    38     6    34    1
    39     6    35    1
    40     9    36    1
    41    13    37    1
    42    14    38    1
    43    15    39    1
    44    16    40    1
    45    18    41    1
    46    19    42    1
    47    23    43    1
    48    23    44    1
    49    24    45    1
    50    28    46    1
    51    28    47    1
    52    29    48    1
    53    29    49    1
    54    30    50    1
    55    30    51    1
    56    31    52    1
    57    31    53    1
    58    32    54    1
    59    32    55    1
@<TRIPOS>MOLECULE
../data/bude_mols_rdkit_confs2/molecule_100.pdb
 55 59 0 0 0
SMALL
GASTEIGER

@<TRIPOS>ATOM
      1  O1        -1.0680    1.9230    1.2780 O.2     1  UNL1       -0.2699
      2  C1        -0.9910    0.8360    0.6690 C.2     1  UNL1        0.2494
      3  C2         0.0880   -0.1030    0.9470 C.ar    1  UNL1        0.0723
      4  C3         1.2740   -0.0850    0.2860 C.ar    1  UNL1       -0.0433
      5  C4         2.2870   -0.9890    0.5660 C.ar    1  UNL1       -0.0406
      6  C5         3.5110   -0.8790   -0.2000 C.3     1  UNL1        0.0171
      7  C6         4.5540   -0.0050    0.3430 C.ar    1  UNL1        0.0736
      8  N1         4.4740    0.6950    1.4670 N.ar    1  UNL1       -0.1750
      9  N2         5.4690    1.4500    1.8650 N.ar    1  UNL1       -0.2425
     10  C7         6.6140    1.5570    1.1660 C.ar    1  UNL1        0.2725
     11  O2         7.5740    2.2860    1.5510 O.2     1  UNL1       -0.2658
     12  C8         6.7820    0.8590   -0.0200 C.ar    1  UNL1        0.0496
     13  C9         7.9460    0.9510   -0.7560 C.ar    1  UNL1       -0.0487
     14  C10        8.0360    0.2260   -1.9240 C.ar    1  UNL1       -0.0610
     15  C11        7.0010   -0.5740   -2.3610 C.ar    1  UNL1       -0.0611
     16  C12        5.8570   -0.6360   -1.5950 C.ar    1  UNL1       -0.0521
     17  C13        5.7130    0.0810   -0.3970 C.ar    1  UNL1        0.0106
     18  C14        2.1080   -1.9400    1.5370 C.ar    1  UNL1       -0.0555
     19  C15        0.9160   -1.9680    2.2110 C.ar    1  UNL1       -0.0254
     20  C16       -0.0940   -1.0700    1.9340 C.ar    1  UNL1        0.1355
     21  F1        -1.2550   -1.1180    2.6090 F       1  UNL1       -0.2047
     22  N3        -1.9480    0.4760   -0.3150 N.am    1  UNL1       -0.2959
     23  C17       -3.1520    1.1060   -0.8830 C.3     1  UNL1        0.0276
     24  C18       -3.6390   -0.2860   -1.2180 C.3     1  UNL1        0.0671
     25  C19       -4.4710   -0.8320   -0.1210 C.2     1  UNL1        0.2217
     26  O3        -3.9530   -1.7220    0.6120 O.2     1  UNL1       -0.2752
     27  N4        -5.7740   -0.3610    0.0750 N.am    1  UNL1       -0.3012
     28  C20       -6.4650    0.6190   -0.7180 C.3     1  UNL1        0.0147
     29  C21       -7.2630    1.4180    0.2930 C.3     1  UNL1       -0.0357
     30  C22       -7.5000    0.4490    1.4320 C.3     1  UNL1       -0.0357
     31  C23       -6.6770   -0.7890    1.1510 C.3     1  UNL1        0.0147
     32  C24       -2.1870   -0.6400   -1.1940 C.3     1  UNL1        0.0276
     33 H           1.4261    0.6242   -0.4481 H       1  UNL1        0.0629
     34 H           3.2532   -0.5107   -1.1710 H       1  UNL1        0.0377
     35 H           3.9360   -1.8609   -0.1911 H       1  UNL1        0.0377
     36 H           5.3754    1.9562    2.7042 H       1  UNL1        0.1921
     37 H           8.7274    1.5465   -0.4401 H       1  UNL1        0.0625
     38 H           8.8996    0.2829   -2.4861 H       1  UNL1        0.0618
     39 H           7.0811   -1.1118   -3.2381 H       1  UNL1        0.0618
     40 H           5.0772   -1.2318   -1.9141 H       1  UNL1        0.0624
     41 H           2.8540   -2.6190    1.7550 H       1  UNL1        0.0621
     42 H           0.7697   -2.6789    2.9447 H       1  UNL1        0.0646
     43 H          -2.9704    1.7319   -1.7317 H       1  UNL1        0.0472
     44 H          -3.7491    1.7912   -0.3184 H       1  UNL1        0.0472
     45 H          -4.2596   -0.5532   -2.0477 H       1  UNL1        0.0425
     46 H          -7.1136    0.1461   -1.4255 H       1  UNL1        0.0464
     47 H          -5.7972    1.2298   -1.2888 H       1  UNL1        0.0464
     48 H          -8.1916    1.7425   -0.1281 H       1  UNL1        0.0281
     49 H          -6.7525    2.3037    0.6091 H       1  UNL1        0.0281
     50 H          -8.5378    0.1940    1.4853 H       1  UNL1        0.0281
     51 H          -7.2167    0.8872    2.3661 H       1  UNL1        0.0281
     52 H          -6.1252   -1.0868    2.0180 H       1  UNL1        0.0464
     53 H          -7.2742   -1.6354    0.8830 H       1  UNL1        0.0464
     54 H          -1.9744   -1.5947   -0.7601 H       1  UNL1        0.0472
     55 H          -1.6346   -0.7486   -2.1039 H       1  UNL1        0.0472
@<TRIPOS>BOND
     1     1     2    2
     2     2     3    1
     3     2    22   am
     4     3     4   ar
     5     3    20   ar
     6     4     5   ar
     7     5     6    1
     8     5    18   ar
     9     6     7    1
    10     7     8   ar
    11     7    17   ar
    12     8     9   ar
    13     9    10   ar
    14    10    11    2
    15    10    12   ar
    16    12    13   ar
    17    12    17   ar
    18    13    14   ar
    19    14    15   ar
    20    15    16   ar
    21    16    17   ar
    22    18    19   ar
    23    19    20   ar
    24    20    21    1
    25    22    23    1
    26    22    32    1
    27    23    24    1
    28    24    25    1
    29    24    32    1
    30    25    26    2
    31    25    27   am
    32    27    28    1
    33    27    31    1
    34    28    29    1
    35    29    30    1
    36    30    31    1
    37     4    33    1
    38     6    34    1
    39     6    35    1
    40     9    36    1
    41    13    37    1
    42    14    38    1
    43    15    39    1
    44    16    40    1
    45    18    41    1
    46    19    42    1
    47    23    43    1
    48    23    44    1
    49    24    45    1
    50    28    46    1
    51    28    47    1
    52    29    48    1
    53    29    49    1
    54    30    50    1
    55    30    51    1
    56    31    52    1
    57    31    53    1
    58    32    54    1
    59    32    55    1
@<TRIPOS>MOLECULE
../data/bude_mols_rdkit_confs2/molecule_100.pdb
 55 59 0 0 0
SMALL
GASTEIGER

@<TRIPOS>ATOM
      1  O1        -2.1600    2.5860   -2.9230 O.2     1  UNL1       -0.2699
      2  C1        -2.1450    1.5670   -2.1950 C.2     1  UNL1        0.2494
      3  C2        -2.4270    1.7480   -0.7780 C.ar    1  UNL1        0.0723
      4  C3        -1.4520    2.0030    0.1630 C.ar    1  UNL1       -0.0433
      5  C4        -1.7270    2.1730    1.5020 C.ar    1  UNL1       -0.0406
      6  C5        -0.6330    2.4460    2.4680 C.3     1  UNL1        0.0171
      7  C6        -0.1400    1.1260    2.9710 C.ar    1  UNL1        0.0736
      8  N1        -0.6650   -0.0410    2.5550 N.ar    1  UNL1       -0.1750
      9  N2        -0.2380   -1.2160    2.9920 N.ar    1  UNL1       -0.2425
     10  C7         0.7600   -1.3130    3.8900 C.ar    1  UNL1        0.2725
     11  O2         1.1610   -2.4370    4.3010 O.2     1  UNL1       -0.2658
     12  C8         1.3600   -0.1720    4.3730 C.ar    1  UNL1        0.0496
     13  C9         2.3880   -0.2210    5.2940 C.ar    1  UNL1       -0.0487
     14  C10        2.9490    0.9570    5.7410 C.ar    1  UNL1       -0.0610
     15  C11        2.4740    2.1590    5.2600 C.ar    1  UNL1       -0.0611
     16  C12        1.4440    2.2240    4.3360 C.ar    1  UNL1       -0.0521
     17  C13        0.8880    1.0530    3.8930 C.ar    1  UNL1        0.0106
     18  C14       -3.0350    2.0850    1.9260 C.ar    1  UNL1       -0.0555
     19  C15       -4.0470    1.8270    1.0010 C.ar    1  UNL1       -0.0254
     20  C16       -3.7340    1.6600   -0.3530 C.ar    1  UNL1        0.1355
     21  F1        -4.7140    1.4100   -1.2520 F       1  UNL1       -0.2047
     22  N3        -1.8650    0.2790   -2.7220 N.am    1  UNL1       -0.2959
     23  C17       -1.7740   -1.0500   -2.1700 C.3     1  UNL1        0.0276
     24  C18       -1.6300   -1.6390   -3.5520 C.3     1  UNL1        0.0671
     25  C19       -0.4470   -2.4910   -3.6520 C.2     1  UNL1        0.2217
     26  O3        -0.6760   -3.7380   -3.8710 O.2     1  UNL1       -0.2752
     27  N4         0.9030   -2.1190   -3.5390 N.am    1  UNL1       -0.3012
     28  C20        1.9990   -3.0870   -3.6520 C.3     1  UNL1        0.0147
     29  C21        3.2650   -2.3990   -3.2620 C.3     1  UNL1       -0.0357
     30  C22        2.8120   -1.1090   -2.6320 C.3     1  UNL1       -0.0357
     31  C23        1.4730   -0.8100   -3.3110 C.3     1  UNL1        0.0147
     32  C24       -1.5530   -0.2320   -4.0410 C.3     1  UNL1        0.0276
     33 H          -0.4710    2.0696   -0.1503 H       1  UNL1        0.0629
     34 H          -1.0026    3.0329    3.2828 H       1  UNL1        0.0377
     35 H           0.1589    2.9906    1.9977 H       1  UNL1        0.0377
     36 H          -0.6604   -2.0378    2.6521 H       1  UNL1        0.1921
     37 H           2.7325   -1.1288    5.6438 H       1  UNL1        0.0625
     38 H           3.7176    0.9391    6.4295 H       1  UNL1        0.0618
     39 H           2.8987    3.0365    5.5986 H       1  UNL1        0.0618
     40 H           1.1031    3.1342    3.9891 H       1  UNL1        0.0624
     41 H          -3.2653    2.2095    2.9242 H       1  UNL1        0.0621
     42 H          -5.0276    1.7592    1.3154 H       1  UNL1        0.0646
     43 H          -2.6562   -1.3663   -1.6537 H       1  UNL1        0.0472
     44 H          -1.0442   -1.2672   -1.4182 H       1  UNL1        0.0472
     45 H          -2.3177   -2.3130   -4.0185 H       1  UNL1        0.0425
     46 H           2.0718   -3.4368   -4.6606 H       1  UNL1        0.0464
     47 H           1.8204   -3.9265   -3.0131 H       1  UNL1        0.0464
     48 H           3.8722   -2.2075   -4.1220 H       1  UNL1        0.0281
     49 H           3.8619   -2.9891   -2.5984 H       1  UNL1        0.0281
     50 H           3.5166   -0.3263   -2.8211 H       1  UNL1        0.0281
     51 H           2.7252   -1.1806   -1.5679 H       1  UNL1        0.0281
     52 H           0.8437   -0.2260   -2.6724 H       1  UNL1        0.0464
     53 H           1.5830   -0.2435   -4.2121 H       1  UNL1        0.0464
     54 H          -0.5833    0.0496   -4.3949 H       1  UNL1        0.0472
     55 H          -2.1440    0.0706   -4.8801 H       1  UNL1        0.0472
@<TRIPOS>BOND
     1     1     2    2
     2     2     3    1
     3     2    22   am
     4     3     4   ar
     5     3    20   ar
     6     4     5   ar
     7     5     6    1
     8     5    18   ar
     9     6     7    1
    10     7     8   ar
    11     7    17   ar
    12     8     9   ar
    13     9    10   ar
    14    10    11    2
    15    10    12   ar
    16    12    13   ar
    17    12    17   ar
    18    13    14   ar
    19    14    15   ar
    20    15    16   ar
    21    16    17   ar
    22    18    19   ar
    23    19    20   ar
    24    20    21    1
    25    22    23    1
    26    22    32    1
    27    23    24    1
    28    24    25    1
    29    24    32    1
    30    25    26    2
    31    25    27   am
    32    27    28    1
    33    27    31    1
    34    28    29    1
    35    29    30    1
    36    30    31    1
    37     4    33    1
    38     6    34    1
    39     6    35    1
    40     9    36    1
    41    13    37    1
    42    14    38    1
    43    15    39    1
    44    16    40    1
    45    18    41    1
    46    19    42    1
    47    23    43    1
    48    23    44    1
    49    24    45    1
    50    28    46    1
    51    28    47    1
    52    29    48    1
    53    29    49    1
    54    30    50    1
    55    30    51    1
    56    31    52    1
    57    31    53    1
    58    32    54    1
    59    32    55    1
@<TRIPOS>MOLECULE
../data/bude_mols_rdkit_confs2/molecule_100.pdb
 55 59 0 0 0
SMALL
GASTEIGER

@<TRIPOS>ATOM
      1  O1         0.5820   -1.6990   -1.0970 O.2     1  UNL1       -0.2699
      2  C1         0.6290   -0.6120   -0.4880 C.2     1  UNL1        0.2494
      3  C2        -0.5350    0.2960   -0.5260 C.ar    1  UNL1        0.0723
      4  C3        -1.5120    0.1780    0.4390 C.ar    1  UNL1       -0.0433
      5  C4        -2.6270    1.0250    0.4350 C.ar    1  UNL1       -0.0406
      6  C5        -3.6010    0.8290    1.5250 C.3     1  UNL1        0.0171
      7  C6        -4.4790   -0.3480    1.3570 C.ar    1  UNL1        0.0736
      8  N1        -4.1720   -1.5450    1.9370 N.ar    1  UNL1       -0.1750
      9  N2        -4.8910   -2.6380    1.7860 N.ar    1  UNL1       -0.2425
     10  C7        -6.0100   -2.6120    1.0180 C.ar    1  UNL1        0.2725
     11  O2        -6.7150   -3.6410    0.8560 O.2     1  UNL1       -0.2658
     12  C8        -6.3990   -1.4450    0.3930 C.ar    1  UNL1        0.0496
     13  C9        -7.5350   -1.4070   -0.3680 C.ar    1  UNL1       -0.0487
     14  C10       -7.9720   -0.2390   -1.0010 C.ar    1  UNL1       -0.0610
     15  C11       -7.1840    0.8750   -0.8080 C.ar    1  UNL1       -0.0611
     16  C12       -6.0410    0.8290   -0.0390 C.ar    1  UNL1       -0.0521
     17  C13       -5.6200   -0.3240    0.5760 C.ar    1  UNL1        0.0106
     18  C14       -2.7020    1.9630   -0.5560 C.ar    1  UNL1       -0.0555
     19  C15       -1.6960    2.0670   -1.5300 C.ar    1  UNL1       -0.0254
     20  C16       -0.5980    1.2350   -1.5290 C.ar    1  UNL1        0.1355
     21  F1         0.3540    1.3640   -2.4840 F       1  UNL1       -0.2047
     22  N3         1.7790   -0.2520    0.2310 N.am    1  UNL1       -0.2959
     23  C17        3.0560   -0.8910    0.4700 C.3     1  UNL1        0.0276
     24  C18        3.6370    0.3490    1.0560 C.3     1  UNL1        0.0671
     25  C19        4.6070    0.9700    0.1320 C.2     1  UNL1        0.2217
     26  O3         4.3850    2.1260   -0.3090 O.2     1  UNL1       -0.2752
     27  N4         5.7740    0.2790   -0.2560 N.am    1  UNL1       -0.3012
     28  C20        6.2330   -1.0400    0.1250 C.3     1  UNL1        0.0147
     29  C21        7.7010   -0.7740    0.3980 C.3     1  UNL1       -0.0357
     30  C22        8.0670    0.4390   -0.4260 C.3     1  UNL1       -0.0357
     31  C23        6.7860    0.7850   -1.1540 C.3     1  UNL1        0.0147
     32  C24        2.2450    0.8760    1.0460 C.3     1  UNL1        0.0276
     33 H          -1.4208   -0.5423    1.1724 H       1  UNL1        0.0629
     34 H          -4.2183    1.7011    1.5826 H       1  UNL1        0.0377
     35 H          -3.0320    0.6601    2.4153 H       1  UNL1        0.0377
     36 H          -4.6172   -3.4731    2.2297 H       1  UNL1        0.1921
     37 H          -8.0891   -2.2706   -0.4789 H       1  UNL1        0.0625
     38 H          -8.8290   -0.2130   -1.5754 H       1  UNL1        0.0618
     39 H          -7.4567    1.7665   -1.2506 H       1  UNL1        0.0618
     40 H          -5.4834    1.6894    0.0783 H       1  UNL1        0.0624
     41 H          -3.5099    2.6043   -0.5890 H       1  UNL1        0.0621
     42 H          -1.7814    2.7855   -2.2659 H       1  UNL1        0.0646
     43 H           3.5475   -1.2123   -0.4245 H       1  UNL1        0.0472
     44 H           3.0864   -1.7984    1.0363 H       1  UNL1        0.0472
     45 H           4.2204    0.3995    1.9515 H       1  UNL1        0.0425
     46 H           6.1034   -1.7449   -0.6695 H       1  UNL1        0.0464
     47 H           5.7034   -1.4677    0.9505 H       1  UNL1        0.0464
     48 H           8.2921   -1.6156    0.1029 H       1  UNL1        0.0281
     49 H           7.8813   -0.6081    1.4396 H       1  UNL1        0.0281
     50 H           8.8480    0.2065   -1.1195 H       1  UNL1        0.0281
     51 H           8.4336    1.2478    0.1709 H       1  UNL1        0.0281
     52 H           6.6906    1.8422   -1.2889 H       1  UNL1        0.0464
     53 H           6.7289    0.3722   -2.1395 H       1  UNL1        0.0464
     54 H           1.7949    0.9215    2.0157 H       1  UNL1        0.0472
     55 H           2.0625    1.8769    0.7146 H       1  UNL1        0.0472
@<TRIPOS>BOND
     1     1     2    2
     2     2     3    1
     3     2    22   am
     4     3     4   ar
     5     3    20   ar
     6     4     5   ar
     7     5     6    1
     8     5    18   ar
     9     6     7    1
    10     7     8   ar
    11     7    17   ar
    12     8     9   ar
    13     9    10   ar
    14    10    11    2
    15    10    12   ar
    16    12    13   ar
    17    12    17   ar
    18    13    14   ar
    19    14    15   ar
    20    15    16   ar
    21    16    17   ar
    22    18    19   ar
    23    19    20   ar
    24    20    21    1
    25    22    23    1
    26    22    32    1
    27    23    24    1
    28    24    25    1
    29    24    32    1
    30    25    26    2
    31    25    27   am
    32    27    28    1
    33    27    31    1
    34    28    29    1
    35    29    30    1
    36    30    31    1
    37     4    33    1
    38     6    34    1
    39     6    35    1
    40     9    36    1
    41    13    37    1
    42    14    38    1
    43    15    39    1
    44    16    40    1
    45    18    41    1
    46    19    42    1
    47    23    43    1
    48    23    44    1
    49    24    45    1
    50    28    46    1
    51    28    47    1
    52    29    48    1
    53    29    49    1
    54    30    50    1
    55    30    51    1
    56    31    52    1
    57    31    53    1
    58    32    54    1
    59    32    55    1
@<TRIPOS>MOLECULE
../data/bude_mols_rdkit_confs2/molecule_100.pdb
 55 59 0 0 0
SMALL
GASTEIGER

@<TRIPOS>ATOM
      1  O1        -0.0270   -1.2360   -2.0130 O.2     1  UNL1       -0.2699
      2  C1         0.2870   -0.9990   -0.8270 C.2     1  UNL1        0.2494
      3  C2        -0.6900   -1.2370    0.2180 C.ar    1  UNL1        0.0723
      4  C3        -1.5680   -0.2170    0.6070 C.ar    1  UNL1       -0.0433
      5  C4        -2.5110   -0.3860    1.5880 C.ar    1  UNL1       -0.0406
      6  C5        -3.4720    0.6420    2.0310 C.3     1  UNL1        0.0171
      7  C6        -4.8320    0.2790    1.5830 C.ar    1  UNL1        0.0736
      8  N1        -5.6400   -0.3940    2.4520 N.ar    1  UNL1       -0.1750
      9  N2        -6.8540   -0.8070    2.1350 N.ar    1  UNL1       -0.2425
     10  C7        -7.3740   -0.5810    0.9050 C.ar    1  UNL1        0.2725
     11  O2        -8.5320   -0.9900    0.6410 O.2     1  UNL1       -0.2658
     12  C8        -6.5820    0.1010   -0.0040 C.ar    1  UNL1        0.0496
     13  C9        -7.0930    0.3560   -1.2560 C.ar    1  UNL1       -0.0487
     14  C10       -6.3680    1.0380   -2.1970 C.ar    1  UNL1       -0.0610
     15  C11       -5.1070    1.4620   -1.8460 C.ar    1  UNL1       -0.0611
     16  C12       -4.5490    1.2290   -0.5970 C.ar    1  UNL1       -0.0521
     17  C13       -5.3030    0.5390    0.3270 C.ar    1  UNL1        0.0106
     18  C14       -2.5430   -1.6580    2.1880 C.ar    1  UNL1       -0.0555
     19  C15       -1.6980   -2.6760    1.8300 C.ar    1  UNL1       -0.0254
     20  C16       -0.7610   -2.4640    0.8340 C.ar    1  UNL1        0.1355
     21  F1         0.0930   -3.4560    0.4570 F       1  UNL1       -0.2047
     22  N3         1.5650   -0.5050   -0.4520 N.am    1  UNL1       -0.2959
     23  C17        2.2260   -0.1370    0.7960 C.3     1  UNL1        0.0276
     24  C18        3.5440   -0.2480    0.0480 C.3     1  UNL1        0.0671
     25  C19        4.4110    0.9450    0.1710 C.2     1  UNL1        0.2217
     26  O3         3.9960    1.9150    0.8510 O.2     1  UNL1       -0.2752
     27  N4         5.6690    0.9730   -0.4680 N.am    1  UNL1       -0.3012
     28  C20        6.6700    2.0200   -0.4840 C.3     1  UNL1        0.0147
     29  C21        7.9710    1.2590   -0.4620 C.3     1  UNL1       -0.0357
     30  C22        7.6340   -0.1940   -0.7300 C.3     1  UNL1       -0.0357
     31  C23        6.2190   -0.1010   -1.2680 C.3     1  UNL1        0.0147
     32  C24        2.7420   -0.1720   -1.2470 C.3     1  UNL1        0.0276
     33 H          -1.5024    0.6989    0.1360 H       1  UNL1        0.0629
     34 H          -3.1998    1.5877    1.6110 H       1  UNL1        0.0377
     35 H          -3.4560    0.7049    3.0990 H       1  UNL1        0.0377
     36 H          -7.3909   -1.2881    2.8054 H       1  UNL1        0.1921
     37 H          -8.0424    0.0265   -1.4909 H       1  UNL1        0.0625
     38 H          -6.7537    1.2270   -3.1354 H       1  UNL1        0.0618
     39 H          -4.5497    1.9778   -2.5448 H       1  UNL1        0.0618
     40 H          -3.5995    1.5619   -0.3675 H       1  UNL1        0.0624
     41 H          -3.2355   -1.8329    2.9329 H       1  UNL1        0.0621
     42 H          -1.7600   -3.5930    2.2993 H       1  UNL1        0.0646
     43 H           2.1030   -0.8419    1.5916 H       1  UNL1        0.0472
     44 H           1.9573    0.7457    1.3378 H       1  UNL1        0.0472
     45 H           4.2291   -1.0364    0.2803 H       1  UNL1        0.0425
     46 H           6.5798    2.6493    0.3767 H       1  UNL1        0.0464
     47 H           6.5807    2.6708   -1.3286 H       1  UNL1        0.0464
     48 H           8.4393    1.3579    0.4950 H       1  UNL1        0.0281
     49 H           8.6492    1.6375   -1.1980 H       1  UNL1        0.0281
     50 H           7.6698   -0.7728    0.1692 H       1  UNL1        0.0281
     51 H           8.3164   -0.6770   -1.3978 H       1  UNL1        0.0281
     52 H           6.2133    0.1462   -2.3090 H       1  UNL1        0.0464
     53 H           5.6689   -1.0164   -1.2021 H       1  UNL1        0.0464
     54 H           2.7160    0.7965   -1.7012 H       1  UNL1        0.0472
     55 H           3.0155   -0.7337   -2.1157 H       1  UNL1        0.0472
@<TRIPOS>BOND
     1     1     2    2
     2     2     3    1
     3     2    22   am
     4     3     4   ar
     5     3    20   ar
     6     4     5   ar
     7     5     6    1
     8     5    18   ar
     9     6     7    1
    10     7     8   ar
    11     7    17   ar
    12     8     9   ar
    13     9    10   ar
    14    10    11    2
    15    10    12   ar
    16    12    13   ar
    17    12    17   ar
    18    13    14   ar
    19    14    15   ar
    20    15    16   ar
    21    16    17   ar
    22    18    19   ar
    23    19    20   ar
    24    20    21    1
    25    22    23    1
    26    22    32    1
    27    23    24    1
    28    24    25    1
    29    24    32    1
    30    25    26    2
    31    25    27   am
    32    27    28    1
    33    27    31    1
    34    28    29    1
    35    29    30    1
    36    30    31    1
    37     4    33    1
    38     6    34    1
    39     6    35    1
    40     9    36    1
    41    13    37    1
    42    14    38    1
    43    15    39    1
    44    16    40    1
    45    18    41    1
    46    19    42    1
    47    23    43    1
    48    23    44    1
    49    24    45    1
    50    28    46    1
    51    28    47    1
    52    29    48    1
    53    29    49    1
    54    30    50    1
    55    30    51    1
    56    31    52    1
    57    31    53    1
    58    32    54    1
    59    32    55    1
@<TRIPOS>MOLECULE
../data/bude_mols_rdkit_confs2/molecule_100.pdb
 55 59 0 0 0
SMALL
GASTEIGER

@<TRIPOS>ATOM
      1  O1        -0.4710    2.2120   -0.5960 O.2     1  UNL1       -0.2699
      2  C1        -0.5310    1.2190    0.1740 C.2     1  UNL1        0.2494
      3  C2         0.5940    0.8270    1.0200 C.ar    1  UNL1        0.0723
      4  C3         1.4980   -0.0500    0.5050 C.ar    1  UNL1       -0.0433
      5  C4         2.6200   -0.5010    1.2190 C.ar    1  UNL1       -0.0406
      6  C5         3.5470   -1.4810    0.5890 C.3     1  UNL1        0.0171
      7  C6         4.3760   -0.8680   -0.4480 C.ar    1  UNL1        0.0736
      8  N1         3.9130   -0.9760   -1.7350 N.ar    1  UNL1       -0.1750
      9  N2         4.5310   -0.4290   -2.7650 N.ar    1  UNL1       -0.2425
     10  C7         5.6630    0.2770   -2.6370 C.ar    1  UNL1        0.2725
     11  O2         6.2550    0.7990   -3.6050 O.2     1  UNL1       -0.2658
     12  C8         6.1880    0.4260   -1.3720 C.ar    1  UNL1        0.0496
     13  C9         7.3430    1.1160   -1.1400 C.ar    1  UNL1       -0.0487
     14  C10        7.8620    1.2430    0.1350 C.ar    1  UNL1       -0.0610
     15  C11        7.2250    0.6740    1.2180 C.ar    1  UNL1       -0.0611
     16  C12        6.0500   -0.0250    0.9670 C.ar    1  UNL1       -0.0521
     17  C13        5.5230   -0.1570   -0.2950 C.ar    1  UNL1        0.0106
     18  C14        2.8270   -0.0480    2.4870 C.ar    1  UNL1       -0.0555
     19  C15        1.8920    0.8550    3.0110 C.ar    1  UNL1       -0.0254
     20  C16        0.7960    1.2860    2.2960 C.ar    1  UNL1        0.1355
     21  F1        -0.1110    2.1610    2.8020 F       1  UNL1       -0.2047
     22  N3        -1.7270    0.4570    0.2220 N.am    1  UNL1       -0.2959
     23  C17       -3.0060    0.5350   -0.4500 C.3     1  UNL1        0.0276
     24  C18       -3.6330   -0.1200    0.7600 C.3     1  UNL1        0.0671
     25  C19       -4.6480   -1.1470    0.4110 C.2     1  UNL1        0.2217
     26  O3        -4.5400   -2.3470    0.7840 O.2     1  UNL1       -0.2752
     27  N4        -5.7680   -0.7530   -0.3650 N.am    1  UNL1       -0.3012
     28  C20       -6.8290   -1.6340   -0.7780 C.3     1  UNL1        0.0147
     29  C21       -7.9270   -0.7850   -1.3300 C.3     1  UNL1       -0.0357
     30  C22       -7.4530    0.6480   -1.2820 C.3     1  UNL1       -0.0357
     31  C23       -6.0160    0.5980   -0.8630 C.3     1  UNL1        0.0147
     32  C24       -2.2260   -0.7070    0.9270 C.3     1  UNL1        0.0276
     33 H           1.3523   -0.4000   -0.4549 H       1  UNL1        0.0629
     34 H           2.9702   -2.2676    0.1491 H       1  UNL1        0.0377
     35 H           4.1976   -1.8554    1.3515 H       1  UNL1        0.0377
     36 H           4.1450   -0.5442   -3.6633 H       1  UNL1        0.1921
     37 H           7.8390    1.5519   -1.9331 H       1  UNL1        0.0625
     38 H           8.7374    1.7704    0.2783 H       1  UNL1        0.0618
     39 H           7.6044    0.7634    2.1736 H       1  UNL1        0.0618
     40 H           5.5541   -0.4619    1.7596 H       1  UNL1        0.0624
     41 H           3.6411   -0.3579    3.0405 H       1  UNL1        0.0621
     42 H           2.0298    1.2110    3.9698 H       1  UNL1        0.0646
     43 H          -3.0700   -0.0418   -1.3490 H       1  UNL1        0.0472
     44 H          -3.3762    1.4627   -0.8338 H       1  UNL1        0.0472
     45 H          -4.1671    0.4075    1.5225 H       1  UNL1        0.0425
     46 H          -7.1865   -2.1940    0.0608 H       1  UNL1        0.0464
     47 H          -6.4795   -2.3255   -1.5160 H       1  UNL1        0.0464
     48 H          -8.8108   -0.8985   -0.7377 H       1  UNL1        0.0281
     49 H          -8.1613   -1.0734   -2.3334 H       1  UNL1        0.0281
     50 H          -8.0274    1.2053   -0.5718 H       1  UNL1        0.0281
     51 H          -7.5662    1.1285   -2.2313 H       1  UNL1        0.0281
     52 H          -5.3811    0.8046   -1.6992 H       1  UNL1        0.0464
     53 H          -5.8104    1.3288   -0.1090 H       1  UNL1        0.0464
     54 H          -1.8947   -0.7908    1.9410 H       1  UNL1        0.0472
     55 H          -1.9894   -1.7014    0.6106 H       1  UNL1        0.0472
@<TRIPOS>BOND
     1     1     2    2
     2     2     3    1
     3     2    22   am
     4     3     4   ar
     5     3    20   ar
     6     4     5   ar
     7     5     6    1
     8     5    18   ar
     9     6     7    1
    10     7     8   ar
    11     7    17   ar
    12     8     9   ar
    13     9    10   ar
    14    10    11    2
    15    10    12   ar
    16    12    13   ar
    17    12    17   ar
    18    13    14   ar
    19    14    15   ar
    20    15    16   ar
    21    16    17   ar
    22    18    19   ar
    23    19    20   ar
    24    20    21    1
    25    22    23    1
    26    22    32    1
    27    23    24    1
    28    24    25    1
    29    24    32    1
    30    25    26    2
    31    25    27   am
    32    27    28    1
    33    27    31    1
    34    28    29    1
    35    29    30    1
    36    30    31    1
    37     4    33    1
    38     6    34    1
    39     6    35    1
    40     9    36    1
    41    13    37    1
    42    14    38    1
    43    15    39    1
    44    16    40    1
    45    18    41    1
    46    19    42    1
    47    23    43    1
    48    23    44    1
    49    24    45    1
    50    28    46    1
    51    28    47    1
    52    29    48    1
    53    29    49    1
    54    30    50    1
    55    30    51    1
    56    31    52    1
    57    31    53    1
    58    32    54    1
    59    32    55    1
@<TRIPOS>MOLECULE
../data/bude_mols_rdkit_confs2/molecule_100.pdb
 55 59 0 0 0
SMALL
GASTEIGER

@<TRIPOS>ATOM
      1  O1        -0.4670   -1.5250    1.2450 O.2     1  UNL1       -0.2699
      2  C1        -0.6460   -0.8100    0.2050 C.2     1  UNL1        0.2494
      3  C2         0.3720    0.1680   -0.1180 C.ar    1  UNL1        0.0723
      4  C3         1.4630   -0.1270   -0.8920 C.ar    1  UNL1       -0.0433
      5  C4         2.4560    0.8110   -1.2180 C.ar    1  UNL1       -0.0406
      6  C5         3.5970    0.4070   -2.0780 C.3     1  UNL1        0.0171
      7  C6         4.5180   -0.4260   -1.2650 C.ar    1  UNL1        0.0736
      8  N1         4.3830   -1.7900   -1.2690 N.ar    1  UNL1       -0.1750
      9  N2         5.1080   -2.5970   -0.5400 N.ar    1  UNL1       -0.2425
     10  C7         6.0560   -2.1350    0.2790 C.ar    1  UNL1        0.2725
     11  O2         6.7650   -2.9180    0.9940 O.2     1  UNL1       -0.2658
     12  C8         6.2600   -0.7690    0.3430 C.ar    1  UNL1        0.0496
     13  C9         7.2650   -0.3080    1.1920 C.ar    1  UNL1       -0.0487
     14  C10        7.4880    1.0590    1.2470 C.ar    1  UNL1       -0.0610
     15  C11        6.7280    1.9070    0.4790 C.ar    1  UNL1       -0.0611
     16  C12        5.7300    1.4280   -0.3620 C.ar    1  UNL1       -0.0521
     17  C13        5.4880    0.0600   -0.4310 C.ar    1  UNL1        0.0106
     18  C14        2.3060    2.0730   -0.7280 C.ar    1  UNL1       -0.0555
     19  C15        1.2010    2.4210    0.0720 C.ar    1  UNL1       -0.0254
     20  C16        0.2510    1.4420    0.3580 C.ar    1  UNL1        0.1355
     21  F1        -0.8020    1.7670    1.1220 F       1  UNL1       -0.2047
     22  N3        -1.8070   -1.0170   -0.5510 N.am    1  UNL1       -0.2959
     23  C17       -2.3610   -0.4270   -1.7480 C.3     1  UNL1        0.0276
     24  C18       -3.7280   -0.7780   -1.1910 C.3     1  UNL1        0.0671
     25  C19       -4.2470    0.2710   -0.3200 C.2     1  UNL1        0.2217
     26  O3        -3.5460    1.2930   -0.1040 O.2     1  UNL1       -0.2752
     27  N4        -5.5200    0.2180    0.3160 N.am    1  UNL1       -0.3012
     28  C20       -6.1120    1.2120    1.1970 C.3     1  UNL1        0.0147
     29  C21       -7.0080    0.3620    2.0670 C.3     1  UNL1       -0.0357
     30  C22       -7.6460   -0.5430    1.0060 C.3     1  UNL1       -0.0357
     31  C23       -6.4510   -0.8900    0.1580 C.3     1  UNL1        0.0147
     32  C24       -2.9510   -1.8820   -0.4950 C.3     1  UNL1        0.0276
     33 H           1.5603   -1.0884   -1.2543 H       1  UNL1        0.0629
     34 H           4.1109    1.2769   -2.4303 H       1  UNL1        0.0377
     35 H           3.2451   -0.1477   -2.9226 H       1  UNL1        0.0377
     36 H           4.9516   -3.5674   -0.5960 H       1  UNL1        0.1921
     37 H           7.8244   -0.9627    1.7607 H       1  UNL1        0.0625
     38 H           8.2233    1.4387    1.8636 H       1  UNL1        0.0618
     39 H           6.9018    2.9231    0.5274 H       1  UNL1        0.0618
     40 H           5.1722    2.0833   -0.9316 H       1  UNL1        0.0624
     41 H           3.0166    2.7884   -0.9476 H       1  UNL1        0.0621
     42 H           1.0967    3.3800    0.4387 H       1  UNL1        0.0646
     43 H          -2.1042   -0.9308   -2.6563 H       1  UNL1        0.0472
     44 H          -2.1127    0.5665   -2.0581 H       1  UNL1        0.0472
     45 H          -4.6109   -0.9647   -1.7659 H       1  UNL1        0.0425
     46 H          -6.6766    1.9343    0.6453 H       1  UNL1        0.0464
     47 H          -5.3947    1.7861    1.7454 H       1  UNL1        0.0464
     48 H          -7.7411    0.9525    2.5757 H       1  UNL1        0.0281
     49 H          -6.5035   -0.1588    2.8538 H       1  UNL1        0.0281
     50 H          -8.3891   -0.0204    0.4407 H       1  UNL1        0.0281
     51 H          -8.1612   -1.3913    1.4057 H       1  UNL1        0.0281
     52 H          -6.0059   -1.8023    0.4963 H       1  UNL1        0.0464
     53 H          -6.7227   -1.0341   -0.8668 H       1  UNL1        0.0464
     54 H          -3.2895   -2.1123    0.4935 H       1  UNL1        0.0472
     55 H          -2.9233   -2.8809   -0.8775 H       1  UNL1        0.0472
@<TRIPOS>BOND
     1     1     2    2
     2     2     3    1
     3     2    22   am
     4     3     4   ar
     5     3    20   ar
     6     4     5   ar
     7     5     6    1
     8     5    18   ar
     9     6     7    1
    10     7     8   ar
    11     7    17   ar
    12     8     9   ar
    13     9    10   ar
    14    10    11    2
    15    10    12   ar
    16    12    13   ar
    17    12    17   ar
    18    13    14   ar
    19    14    15   ar
    20    15    16   ar
    21    16    17   ar
    22    18    19   ar
    23    19    20   ar
    24    20    21    1
    25    22    23    1
    26    22    32    1
    27    23    24    1
    28    24    25    1
    29    24    32    1
    30    25    26    2
    31    25    27   am
    32    27    28    1
    33    27    31    1
    34    28    29    1
    35    29    30    1
    36    30    31    1
    37     4    33    1
    38     6    34    1
    39     6    35    1
    40     9    36    1
    41    13    37    1
    42    14    38    1
    43    15    39    1
    44    16    40    1
    45    18    41    1
    46    19    42    1
    47    23    43    1
    48    23    44    1
    49    24    45    1
    50    28    46    1
    51    28    47    1
    52    29    48    1
    53    29    49    1
    54    30    50    1
    55    30    51    1
    56    31    52    1
    57    31    53    1
    58    32    54    1
    59    32    55    1
@<TRIPOS>MOLECULE
../data/bude_mols_rdkit_confs2/molecule_100.pdb
 55 59 0 0 0
SMALL
GASTEIGER

@<TRIPOS>ATOM
      1  O1         0.1880    0.1610   -2.2140 O.2     1  UNL1       -0.2699
      2  C1         0.3950    0.5620   -1.0400 C.2     1  UNL1        0.2494
      3  C2        -0.7130    1.1930   -0.3350 C.ar    1  UNL1        0.0723
      4  C3        -1.6070    0.4410    0.4450 C.ar    1  UNL1       -0.0433
      5  C4        -2.6460    0.9900    1.1140 C.ar    1  UNL1       -0.0406
      6  C5        -3.5940    0.2120    1.9200 C.3     1  UNL1        0.0171
      7  C6        -4.9420    0.1330    1.3790 C.ar    1  UNL1        0.0736
      8  N1        -5.9010    0.9890    1.8190 N.ar    1  UNL1       -0.1750
      9  N2        -7.1250    1.0180    1.3640 N.ar    1  UNL1       -0.2425
     10  C7        -7.5020    0.1720    0.4090 C.ar    1  UNL1        0.2725
     11  O2        -8.6690    0.1810   -0.0430 O.2     1  UNL1       -0.2658
     12  C8        -6.5950   -0.7340   -0.0980 C.ar    1  UNL1        0.0496
     13  C9        -6.9790   -1.6260   -1.0840 C.ar    1  UNL1       -0.0487
     14  C10       -6.0930   -2.5590   -1.6050 C.ar    1  UNL1       -0.0610
     15  C11       -4.8060   -2.5840   -1.1190 C.ar    1  UNL1       -0.0611
     16  C12       -4.4320   -1.6810   -0.1280 C.ar    1  UNL1       -0.0521
     17  C13       -5.2920   -0.7490    0.4000 C.ar    1  UNL1        0.0106
     18  C14       -2.7970    2.3800    0.9950 C.ar    1  UNL1       -0.0555
     19  C15       -1.9250    3.1210    0.2320 C.ar    1  UNL1       -0.0254
     20  C16       -0.8670    2.5570   -0.4490 C.ar    1  UNL1        0.1355
     21  F1        -0.0130    3.2910   -1.1980 F       1  UNL1       -0.2047
     22  N3         1.6560    0.3990   -0.4460 N.am    1  UNL1       -0.2959
     23  C17        2.9310   -0.1830   -0.9010 C.3     1  UNL1        0.0276
     24  C18        3.6150    0.8380   -0.0320 C.3     1  UNL1        0.0671
     25  C19        4.8340    0.4290    0.6700 C.2     1  UNL1        0.2217
     26  O3         4.7480    0.4250    1.9520 O.2     1  UNL1       -0.2752
     27  N4         6.0200    0.0640    0.0170 N.am    1  UNL1       -0.3012
     28  C20        6.2760    0.0240   -1.3900 C.3     1  UNL1        0.0147
     29  C21        6.9270   -1.3620   -1.5280 C.3     1  UNL1       -0.0357
     30  C22        7.5980   -1.5800   -0.1860 C.3     1  UNL1       -0.0357
     31  C23        7.2470   -0.3520    0.6520 C.3     1  UNL1        0.0147
     32  C24        2.3390    0.6800    0.8060 C.3     1  UNL1        0.0276
     33 H          -1.4641   -0.5789    0.5106 H       1  UNL1        0.0629
     34 H          -3.6514    0.6607    2.8897 H       1  UNL1        0.0377
     35 H          -3.2197   -0.7902    1.9367 H       1  UNL1        0.0377
     36 H          -7.7696    1.6669    1.7283 H       1  UNL1        0.1921
     37 H          -7.9471   -1.5968   -1.4404 H       1  UNL1        0.0625
     38 H          -6.3927   -3.2187   -2.3399 H       1  UNL1        0.0618
     39 H          -4.1241   -3.2662   -1.4860 H       1  UNL1        0.0618
     40 H          -3.4634   -1.7132    0.2267 H       1  UNL1        0.0624
     41 H          -3.5721    2.8522    1.4862 H       1  UNL1        0.0621
     42 H          -2.0684    4.1409    0.1665 H       1  UNL1        0.0646
     43 H           3.1221   -0.0801   -1.9487 H       1  UNL1        0.0472
     44 H           3.1387   -1.2293   -0.8177 H       1  UNL1        0.0472
     45 H           4.0074    1.7550   -0.4193 H       1  UNL1        0.0425
     46 H           6.9440    0.8040   -1.6906 H       1  UNL1        0.0464
     47 H           5.4096    0.1682   -2.0011 H       1  UNL1        0.0464
     48 H           7.6467   -1.3682   -2.3198 H       1  UNL1        0.0281
     49 H           6.2209   -2.1294   -1.7678 H       1  UNL1        0.0281
     50 H           8.6582   -1.6593   -0.3068 H       1  UNL1        0.0281
     51 H           7.2680   -2.4851    0.2797 H       1  UNL1        0.0281
     52 H           7.0922   -0.6071    1.6796 H       1  UNL1        0.0464
     53 H           8.0089    0.3987    0.6802 H       1  UNL1        0.0464
     54 H           2.3556   -0.1329    1.5015 H       1  UNL1        0.0472
     55 H           2.0026    1.4384    1.4817 H       1  UNL1        0.0472
@<TRIPOS>BOND
     1     1     2    2
     2     2     3    1
     3     2    22   am
     4     3     4   ar
     5     3    20   ar
     6     4     5   ar
     7     5     6    1
     8     5    18   ar
     9     6     7    1
    10     7     8   ar
    11     7    17   ar
    12     8     9   ar
    13     9    10   ar
    14    10    11    2
    15    10    12   ar
    16    12    13   ar
    17    12    17   ar
    18    13    14   ar
    19    14    15   ar
    20    15    16   ar
    21    16    17   ar
    22    18    19   ar
    23    19    20   ar
    24    20    21    1
    25    22    23    1
    26    22    32    1
    27    23    24    1
    28    24    25    1
    29    24    32    1
    30    25    26    2
    31    25    27   am
    32    27    28    1
    33    27    31    1
    34    28    29    1
    35    29    30    1
    36    30    31    1
    37     4    33    1
    38     6    34    1
    39     6    35    1
    40     9    36    1
    41    13    37    1
    42    14    38    1
    43    15    39    1
    44    16    40    1
    45    18    41    1
    46    19    42    1
    47    23    43    1
    48    23    44    1
    49    24    45    1
    50    28    46    1
    51    28    47    1
    52    29    48    1
    53    29    49    1
    54    30    50    1
    55    30    51    1
    56    31    52    1
    57    31    53    1
    58    32    54    1
    59    32    55    1
@<TRIPOS>MOLECULE
../data/bude_mols_rdkit_confs2/molecule_100.pdb
 55 59 0 0 0
SMALL
GASTEIGER

@<TRIPOS>ATOM
      1  O1        -0.1590   -2.3260   -1.0240 O.2     1  UNL1       -0.2699
      2  C1        -0.4420   -1.1000   -0.8430 C.2     1  UNL1        0.2494
      3  C2         0.5460   -0.1320   -1.2790 C.ar    1  UNL1        0.0723
      4  C3         1.5360    0.3550   -0.4290 C.ar    1  UNL1       -0.0433
      5  C4         2.4860    1.2700   -0.8000 C.ar    1  UNL1       -0.0406
      6  C5         3.5560    1.8150    0.0640 C.3     1  UNL1        0.0171
      7  C6         4.8670    1.1610   -0.0820 C.ar    1  UNL1        0.0736
      8  N1         5.7780    1.7140   -0.9420 N.ar    1  UNL1       -0.1750
      9  N2         6.9470    1.1980   -1.1850 N.ar    1  UNL1       -0.2425
     10  C7         7.3570    0.0620   -0.6000 C.ar    1  UNL1        0.2725
     11  O2         8.4650   -0.4370   -0.8230 O.2     1  UNL1       -0.2658
     12  C8         6.5140   -0.5710    0.2830 C.ar    1  UNL1        0.0496
     13  C9         6.9370   -1.7300    0.8980 C.ar    1  UNL1       -0.0487
     14  C10        6.0760   -2.3530    1.8040 C.ar    1  UNL1       -0.0610
     15  C11        4.8490   -1.7740    2.0350 C.ar    1  UNL1       -0.0611
     16  C12        4.4500   -0.6170    1.4100 C.ar    1  UNL1       -0.0521
     17  C13        5.2820    0.0030    0.5180 C.ar    1  UNL1        0.0106
     18  C14        2.4110    1.7120   -2.1340 C.ar    1  UNL1       -0.0555
     19  C15        1.4590    1.2690   -3.0160 C.ar    1  UNL1       -0.0254
     20  C16        0.5410    0.3500   -2.5680 C.ar    1  UNL1        0.1355
     21  F1        -0.4110   -0.0960   -3.4430 F       1  UNL1       -0.2047
     22  N3        -1.6730   -0.7910   -0.2430 N.am    1  UNL1       -0.2959
     23  C17       -2.8180   -1.5340    0.2680 C.3     1  UNL1        0.0276
     24  C18       -3.0550   -0.4000    1.2050 C.3     1  UNL1        0.0671
     25  C19       -4.4030   -0.0820    1.6350 C.2     1  UNL1        0.2217
     26  O3        -4.6010   -0.0370    2.9250 O.2     1  UNL1       -0.2752
     27  N4        -5.5500    0.1920    0.8840 N.am    1  UNL1       -0.3012
     28  C20       -6.8730    0.5240    1.4930 C.3     1  UNL1        0.0147
     29  C21       -7.7840   -0.3500    0.6860 C.3     1  UNL1       -0.0357
     30  C22       -7.0960   -0.6060   -0.6290 C.3     1  UNL1       -0.0357
     31  C23       -5.8350    0.2390   -0.5310 C.3     1  UNL1        0.0147
     32  C24       -2.3770    0.4310    0.1660 C.3     1  UNL1        0.0276
     33 H           1.5553    0.0046    0.5415 H       1  UNL1        0.0629
     34 H           3.2451    1.7117    1.0826 H       1  UNL1        0.0377
     35 H           3.6942    2.8325   -0.2368 H       1  UNL1        0.0377
     36 H           7.5487    1.6543   -1.8167 H       1  UNL1        0.1921
     37 H           7.8672   -2.1276    0.6939 H       1  UNL1        0.0625
     38 H           6.3519   -3.2226    2.2864 H       1  UNL1        0.0618
     39 H           4.2045   -2.2256    2.7026 H       1  UNL1        0.0618
     40 H           3.5215   -0.2152    1.6137 H       1  UNL1        0.0624
     41 H           3.1045    2.4014   -2.4637 H       1  UNL1        0.0621
     42 H           1.4328    1.6157   -3.9877 H       1  UNL1        0.0646
     43 H          -2.5724   -2.4609    0.7427 H       1  UNL1        0.0472
     44 H          -3.5873   -1.8976   -0.3807 H       1  UNL1        0.0472
     45 H          -2.7403   -0.4146    2.2276 H       1  UNL1        0.0425
     46 H          -7.1128    1.5598    1.3722 H       1  UNL1        0.0464
     47 H          -6.9264    0.3620    2.5493 H       1  UNL1        0.0464
     48 H          -8.7183    0.1451    0.5219 H       1  UNL1        0.0281
     49 H          -7.9849   -1.2681    1.1974 H       1  UNL1        0.0281
     50 H          -7.7064   -0.2908   -1.4493 H       1  UNL1        0.0281
     51 H          -6.8945   -1.6424   -0.8027 H       1  UNL1        0.0281
     52 H          -5.0367   -0.1865   -1.1025 H       1  UNL1        0.0464
     53 H          -5.9501    1.2312   -0.9147 H       1  UNL1        0.0464
     54 H          -3.0300    0.8413   -0.5757 H       1  UNL1        0.0472
     55 H          -1.8534    1.3309    0.4130 H       1  UNL1        0.0472
@<TRIPOS>BOND
     1     1     2    2
     2     2     3    1
     3     2    22   am
     4     3     4   ar
     5     3    20   ar
     6     4     5   ar
     7     5     6    1
     8     5    18   ar
     9     6     7    1
    10     7     8   ar
    11     7    17   ar
    12     8     9   ar
    13     9    10   ar
    14    10    11    2
    15    10    12   ar
    16    12    13   ar
    17    12    17   ar
    18    13    14   ar
    19    14    15   ar
    20    15    16   ar
    21    16    17   ar
    22    18    19   ar
    23    19    20   ar
    24    20    21    1
    25    22    23    1
    26    22    32    1
    27    23    24    1
    28    24    25    1
    29    24    32    1
    30    25    26    2
    31    25    27   am
    32    27    28    1
    33    27    31    1
    34    28    29    1
    35    29    30    1
    36    30    31    1
    37     4    33    1
    38     6    34    1
    39     6    35    1
    40     9    36    1
    41    13    37    1
    42    14    38    1
    43    15    39    1
    44    16    40    1
    45    18    41    1
    46    19    42    1
    47    23    43    1
    48    23    44    1
    49    24    45    1
    50    28    46    1
    51    28    47    1
    52    29    48    1
    53    29    49    1
    54    30    50    1
    55    30    51    1
    56    31    52    1
    57    31    53    1
    58    32    54    1
    59    32    55    1
@<TRIPOS>MOLECULE
../data/bude_mols_rdkit_confs2/molecule_100.pdb
 55 59 0 0 0
SMALL
GASTEIGER

@<TRIPOS>ATOM
      1  O1        -0.1750    1.3820    1.6380 O.2     1  UNL1       -0.2699
      2  C1        -0.3720    0.3610    0.9350 C.2     1  UNL1        0.2494
      3  C2         0.6420   -0.6700    0.9340 C.ar    1  UNL1        0.0723
      4  C3         1.6760   -0.5770   -0.0030 C.ar    1  UNL1       -0.0433
      5  C4         2.6790   -1.5030   -0.0540 C.ar    1  UNL1       -0.0406
      6  C5         3.8280   -1.4790   -1.0090 C.3     1  UNL1        0.0171
      7  C6         5.0540   -0.8970   -0.4350 C.ar    1  UNL1        0.0736
      8  N1         5.9570   -1.7200    0.1770 N.ar    1  UNL1       -0.1750
      9  N2         7.0420   -1.2800    0.7740 N.ar    1  UNL1       -0.2425
     10  C7         7.3270    0.0300    0.8150 C.ar    1  UNL1        0.2725
     11  O2         8.3760    0.4630    1.3930 O.2     1  UNL1       -0.2658
     12  C8         6.4780    0.9540    0.2230 C.ar    1  UNL1        0.0496
     13  C9         6.7730    2.3020    0.2440 C.ar    1  UNL1       -0.0487
     14  C10        5.9240    3.1880   -0.3680 C.ar    1  UNL1       -0.0610
     15  C11        4.8000    2.6800   -0.9850 C.ar    1  UNL1       -0.0611
     16  C12        4.4850    1.3330   -1.0190 C.ar    1  UNL1       -0.0521
     17  C13        5.3320    0.4450   -0.4050 C.ar    1  UNL1        0.0106
     18  C14        2.6070   -2.5480    0.8860 C.ar    1  UNL1       -0.0555
     19  C15        1.6240   -2.6820    1.8140 C.ar    1  UNL1       -0.0254
     20  C16        0.6300   -1.7110    1.8210 C.ar    1  UNL1        0.1355
     21  F1        -0.3570   -1.8450    2.7530 F       1  UNL1       -0.2047
     22  N3        -1.5470    0.2180    0.1640 N.am    1  UNL1       -0.2959
     23  C17       -2.1190   -0.7790   -0.7450 C.3     1  UNL1        0.0276
     24  C18       -3.4280   -0.0240   -0.6970 C.3     1  UNL1        0.0671
     25  C19       -4.4470   -0.6720    0.1690 C.2     1  UNL1        0.2217
     26  O3        -4.1960   -1.7730    0.7170 O.2     1  UNL1       -0.2752
     27  N4        -5.6930   -0.0120    0.3500 N.am    1  UNL1       -0.3012
     28  C20       -6.1150    1.2550   -0.2130 C.3     1  UNL1        0.0147
     29  C21       -7.5860    1.0740   -0.4420 C.3     1  UNL1       -0.0357
     30  C22       -7.9750   -0.2290    0.2080 C.3     1  UNL1       -0.0357
     31  C23       -6.8200   -0.4850    1.1530 C.3     1  UNL1        0.0147
     32  C24       -2.7150    1.0970   -0.0180 C.3     1  UNL1        0.0276
     33 H           1.6814    0.2093   -0.6713 H       1  UNL1        0.0629
     34 H           3.5463   -0.9008   -1.8641 H       1  UNL1        0.0377
     35 H           4.0492   -2.4947   -1.2625 H       1  UNL1        0.0377
     36 H           7.6557   -1.9225    1.1981 H       1  UNL1        0.1921
     37 H           7.6257    2.6405    0.7165 H       1  UNL1        0.0625
     38 H           6.1196    4.2013   -0.3669 H       1  UNL1        0.0618
     39 H           4.1575    3.3420   -1.4475 H       1  UNL1        0.0618
     40 H           3.6313    1.0033   -1.4960 H       1  UNL1        0.0624
     41 H           3.3523   -3.2616    0.8691 H       1  UNL1        0.0621
     42 H           1.6158   -3.4682    2.4825 H       1  UNL1        0.0646
     43 H          -2.1653   -1.7690   -0.3417 H       1  UNL1        0.0472
     44 H          -1.6486   -1.0097   -1.6780 H       1  UNL1        0.0472
     45 H          -4.0069    0.1380   -1.5822 H       1  UNL1        0.0425
     46 H          -5.6072    1.4505   -1.1343 H       1  UNL1        0.0464
     47 H          -5.8952    2.0848    0.4258 H       1  UNL1        0.0464
     48 H          -7.7930    1.0377   -1.4912 H       1  UNL1        0.0281
     49 H          -8.1407    1.8891   -0.0264 H       1  UNL1        0.0281
     50 H          -8.0617   -1.0114   -0.5168 H       1  UNL1        0.0281
     51 H          -8.9255   -0.1929    0.6980 H       1  UNL1        0.0281
     52 H          -6.9208    0.0767    2.0581 H       1  UNL1        0.0464
     53 H          -6.7338   -1.5003    1.4796 H       1  UNL1        0.0464
     54 H          -2.5333    1.9457   -0.6438 H       1  UNL1        0.0472
     55 H          -3.1561    1.6019    0.8159 H       1  UNL1        0.0472
@<TRIPOS>BOND
     1     1     2    2
     2     2     3    1
     3     2    22   am
     4     3     4   ar
     5     3    20   ar
     6     4     5   ar
     7     5     6    1
     8     5    18   ar
     9     6     7    1
    10     7     8   ar
    11     7    17   ar
    12     8     9   ar
    13     9    10   ar
    14    10    11    2
    15    10    12   ar
    16    12    13   ar
    17    12    17   ar
    18    13    14   ar
    19    14    15   ar
    20    15    16   ar
    21    16    17   ar
    22    18    19   ar
    23    19    20   ar
    24    20    21    1
    25    22    23    1
    26    22    32    1
    27    23    24    1
    28    24    25    1
    29    24    32    1
    30    25    26    2
    31    25    27   am
    32    27    28    1
    33    27    31    1
    34    28    29    1
    35    29    30    1
    36    30    31    1
    37     4    33    1
    38     6    34    1
    39     6    35    1
    40     9    36    1
    41    13    37    1
    42    14    38    1
    43    15    39    1
    44    16    40    1
    45    18    41    1
    46    19    42    1
    47    23    43    1
    48    23    44    1
    49    24    45    1
    50    28    46    1
    51    28    47    1
    52    29    48    1
    53    29    49    1
    54    30    50    1
    55    30    51    1
    56    31    52    1
    57    31    53    1
    58    32    54    1
    59    32    55    1
