@<TRIPOS>MOLECULE
../data/bude_mols_rdkit_confs2/molecule_53.pdb
 32 34 0 0 0
SMALL
GASTEIGER

@<TRIPOS>ATOM
      1  O1         3.4670   -2.9060    0.1120 O.3     1  UNL1       -0.5032
      2  C1         2.7200   -1.7610   -0.0620 C.ar    1  UNL1        0.1620
      3  C2         1.8330   -1.6390   -1.1110 C.ar    1  UNL1       -0.0157
      4  C3         1.0710   -0.5040   -1.3120 C.ar    1  UNL1       -0.0454
      5  C4         1.1780    0.5620   -0.4490 C.ar    1  UNL1        0.0457
      6  C5         0.3610    1.7440   -0.6870 C.ar    1  UNL1        0.0770
      7  N1         0.7500    3.0030   -0.9600 N.ar    1  UNL1       -0.2763
      8  N2        -0.2880    3.7920   -1.1100 N.ar    1  UNL1       -0.1811
      9  C6        -1.4060    3.0900   -0.9440 C.ar    1  UNL1        0.0575
     10  C7        -1.0260    1.7880   -0.6740 C.ar    1  UNL1        0.0273
     11  C8        -1.8740    0.6310   -0.4160 C.ar    1  UNL1       -0.0142
     12  C9        -1.8640   -0.0490    0.7870 C.ar    1  UNL1       -0.0512
     13  C10       -2.6610   -1.1390    1.0340 C.ar    1  UNL1       -0.0259
     14  C11       -3.5220   -1.6070    0.0670 C.ar    1  UNL1        0.1234
     15  F1        -4.2860   -2.6790    0.3510 F       1  UNL1       -0.2055
     16  C12       -3.5510   -0.9470   -1.1410 C.ar    1  UNL1       -0.0259
     17  C13       -2.7460    0.1480   -1.3790 C.ar    1  UNL1       -0.0512
     18  C14        2.0590    0.4550    0.6020 C.ar    1  UNL1        0.1713
     19  O2         2.1740    1.5240    1.4770 O.3     1  UNL1       -0.5028
     20  C15        2.8130   -0.6850    0.7890 C.ar    1  UNL1        0.2012
     21  O3         3.7030   -0.7790    1.8620 O.3     1  UNL1       -0.5009
     22 H           3.3772   -3.6197   -0.4884 H       1  UNL1        0.2923
     23 H           1.7346   -2.4259   -1.7714 H       1  UNL1        0.0655
     24 H           0.4201   -0.4559   -2.1114 H       1  UNL1        0.0626
     25 H           1.6876    3.2933   -1.0369 H       1  UNL1        0.1889
     26 H          -2.3718    3.4485   -1.0050 H       1  UNL1        0.0854
     27 H          -1.2293    0.2770    1.5326 H       1  UNL1        0.0624
     28 H          -2.6145   -1.6108    1.9507 H       1  UNL1        0.0646
     29 H          -4.1874   -1.2778   -1.8830 H       1  UNL1        0.0646
     30 H          -2.7943    0.6187   -2.2961 H       1  UNL1        0.0624
     31 H           1.6590    2.2955    1.3444 H       1  UNL1        0.2923
     32 H           4.2116   -1.5568    1.9821 H       1  UNL1        0.2924
@<TRIPOS>BOND
     1     1     2    1
     2     2     3   ar
     3     2    20   ar
     4     3     4   ar
     5     4     5   ar
     6     5     6    1
     7     5    18   ar
     8     6     7   ar
     9     6    10   ar
    10     7     8   ar
    11     8     9   ar
    12     9    10   ar
    13    10    11    1
    14    11    12   ar
    15    11    17   ar
    16    12    13   ar
    17    13    14   ar
    18    14    15    1
    19    14    16   ar
    20    16    17   ar
    21    18    19    1
    22    18    20   ar
    23    20    21    1
    24     1    22    1
    25     3    23    1
    26     4    24    1
    27     7    25    1
    28     9    26    1
    29    12    27    1
    30    13    28    1
    31    16    29    1
    32    17    30    1
    33    19    31    1
    34    21    32    1
@<TRIPOS>MOLECULE
../data/bude_mols_rdkit_confs2/molecule_53.pdb
 32 34 0 0 0
SMALL
GASTEIGER

@<TRIPOS>ATOM
      1  O1         3.9180    2.4980    0.8150 O.3     1  UNL1       -0.5032
      2  C1         3.0270    1.5530    0.3180 C.ar    1  UNL1        0.1620
      3  C2         2.2730    1.7810   -0.7910 C.ar    1  UNL1       -0.0157
      4  C3         1.3850    0.8370   -1.2860 C.ar    1  UNL1       -0.0454
      5  C4         1.2660   -0.3560   -0.6390 C.ar    1  UNL1        0.0457
      6  C5         0.3470   -1.3550   -1.1550 C.ar    1  UNL1        0.0770
      7  N1         0.7350   -2.5030   -1.7950 N.ar    1  UNL1       -0.2763
      8  N2        -0.3010   -3.2060   -2.1660 N.ar    1  UNL1       -0.1811
      9  C6        -1.3960   -2.5530   -1.7880 C.ar    1  UNL1        0.0575
     10  C7        -1.0310   -1.3640   -1.1370 C.ar    1  UNL1        0.0273
     11  C8        -1.9440   -0.3770   -0.5790 C.ar    1  UNL1       -0.0142
     12  C9        -2.7320   -0.7280    0.5120 C.ar    1  UNL1       -0.0512
     13  C10       -3.6270    0.1690    1.0660 C.ar    1  UNL1       -0.0259
     14  C11       -3.7740    1.4270    0.5710 C.ar    1  UNL1        0.1234
     15  F1        -4.6690    2.2640    1.1540 F       1  UNL1       -0.2055
     16  C12       -3.0060    1.8110   -0.5140 C.ar    1  UNL1       -0.0259
     17  C13       -2.1030    0.8940   -1.0670 C.ar    1  UNL1       -0.0512
     18  C14        2.0230   -0.5970    0.4820 C.ar    1  UNL1        0.1713
     19  O2         1.9250   -1.8090    1.1670 O.3     1  UNL1       -0.5028
     20  C15        2.9120    0.3380    0.9860 C.ar    1  UNL1        0.2012
     21  O3         3.6940    0.1320    2.1180 O.3     1  UNL1       -0.5009
     22 H           4.0139    3.3241    0.3833 H       1  UNL1        0.2923
     23 H           2.3645    2.6853   -1.2799 H       1  UNL1        0.0655
     24 H           0.8244    1.0350   -2.1295 H       1  UNL1        0.0626
     25 H           1.6711   -2.7633   -1.9540 H       1  UNL1        0.1889
     26 H          -2.3645   -2.8712   -1.9484 H       1  UNL1        0.0854
     27 H          -2.6473   -1.6742    0.9151 H       1  UNL1        0.0624
     28 H          -4.1973   -0.1235    1.8749 H       1  UNL1        0.0646
     29 H          -3.0972    2.7595   -0.9102 H       1  UNL1        0.0646
     30 H          -1.5334    1.1877   -1.8759 H       1  UNL1        0.0624
     31 H           1.3369   -2.4724    0.8636 H       1  UNL1        0.2923
     32 H           4.2786    0.8027    2.4120 H       1  UNL1        0.2924
@<TRIPOS>BOND
     1     1     2    1
     2     2     3   ar
     3     2    20   ar
     4     3     4   ar
     5     4     5   ar
     6     5     6    1
     7     5    18   ar
     8     6     7   ar
     9     6    10   ar
    10     7     8   ar
    11     8     9   ar
    12     9    10   ar
    13    10    11    1
    14    11    12   ar
    15    11    17   ar
    16    12    13   ar
    17    13    14   ar
    18    14    15    1
    19    14    16   ar
    20    16    17   ar
    21    18    19    1
    22    18    20   ar
    23    20    21    1
    24     1    22    1
    25     3    23    1
    26     4    24    1
    27     7    25    1
    28     9    26    1
    29    12    27    1
    30    13    28    1
    31    16    29    1
    32    17    30    1
    33    19    31    1
    34    21    32    1
@<TRIPOS>MOLECULE
../data/bude_mols_rdkit_confs2/molecule_53.pdb
 32 34 0 0 0
SMALL
GASTEIGER

@<TRIPOS>ATOM
      1  O1         3.5720    2.5530   -0.9060 O.3     1  UNL1       -0.5032
      2  C1         2.7680    1.4860   -0.4920 C.ar    1  UNL1        0.1620
      3  C2         1.9310    0.8800   -1.4020 C.ar    1  UNL1       -0.0157
      4  C3         1.1590   -0.1640   -0.9550 C.ar    1  UNL1       -0.0454
      5  C4         1.1970   -0.6110    0.3450 C.ar    1  UNL1        0.0457
      6  C5         0.3350   -1.7230    0.7010 C.ar    1  UNL1        0.0770
      7  N1         0.7620   -2.9470    1.1340 N.ar    1  UNL1       -0.2763
      8  N2        -0.3230   -3.6780    1.3530 N.ar    1  UNL1       -0.1811
      9  C6        -1.4430   -2.9450    1.0680 C.ar    1  UNL1        0.0575
     10  C7        -1.0270   -1.7020    0.6540 C.ar    1  UNL1        0.0273
     11  C8        -1.8770   -0.6010    0.2500 C.ar    1  UNL1       -0.0142
     12  C9        -1.9300    0.5990    0.9080 C.ar    1  UNL1       -0.0512
     13  C10       -2.7410    1.6420    0.5190 C.ar    1  UNL1       -0.0259
     14  C11       -3.5590    1.5170   -0.5840 C.ar    1  UNL1        0.1234
     15  F1        -4.3670    2.5050   -1.0030 F       1  UNL1       -0.2055
     16  C12       -3.5390    0.3260   -1.2770 C.ar    1  UNL1       -0.0259
     17  C13       -2.7180   -0.6990   -0.8650 C.ar    1  UNL1       -0.0512
     18  C14        2.0340    0.0070    1.2230 C.ar    1  UNL1        0.1713
     19  O2         2.0790   -0.4330    2.5250 O.3     1  UNL1       -0.5028
     20  C15        2.8250    1.0510    0.8330 C.ar    1  UNL1        0.2012
     21  O3         3.6920    1.6960    1.7280 O.3     1  UNL1       -0.5009
     22 H           3.5372    2.8486   -1.7945 H       1  UNL1        0.2923
     23 H           1.8856    1.1983   -2.3826 H       1  UNL1        0.0655
     24 H           0.5249   -0.6319   -1.6213 H       1  UNL1        0.0626
     25 H           1.6961   -3.2317    1.2594 H       1  UNL1        0.1889
     26 H          -2.4203   -3.2664    1.1490 H       1  UNL1        0.0854
     27 H          -1.3311    0.7284    1.7384 H       1  UNL1        0.0624
     28 H          -2.7364    2.5229    1.0566 H       1  UNL1        0.0646
     29 H          -4.1407    0.2024   -2.1063 H       1  UNL1        0.0646
     30 H          -2.7225   -1.5800   -1.4025 H       1  UNL1        0.0624
     31 H           1.5384   -1.1485    2.7967 H       1  UNL1        0.2923
     32 H           4.2233    2.4095    1.4336 H       1  UNL1        0.2924
@<TRIPOS>BOND
     1     1     2    1
     2     2     3   ar
     3     2    20   ar
     4     3     4   ar
     5     4     5   ar
     6     5     6    1
     7     5    18   ar
     8     6     7   ar
     9     6    10   ar
    10     7     8   ar
    11     8     9   ar
    12     9    10   ar
    13    10    11    1
    14    11    12   ar
    15    11    17   ar
    16    12    13   ar
    17    13    14   ar
    18    14    15    1
    19    14    16   ar
    20    16    17   ar
    21    18    19    1
    22    18    20   ar
    23    20    21    1
    24     1    22    1
    25     3    23    1
    26     4    24    1
    27     7    25    1
    28     9    26    1
    29    12    27    1
    30    13    28    1
    31    16    29    1
    32    17    30    1
    33    19    31    1
    34    21    32    1
@<TRIPOS>MOLECULE
../data/bude_mols_rdkit_confs2/molecule_53.pdb
 32 34 0 0 0
SMALL
GASTEIGER

@<TRIPOS>ATOM
      1  O1        -4.2410    1.4180   -1.6940 O.3     1  UNL1       -0.5032
      2  C1        -3.2600    0.7030   -0.9750 C.ar    1  UNL1        0.1620
      3  C2        -3.2020   -0.6670   -1.0350 C.ar    1  UNL1       -0.0157
      4  C3        -2.2440   -1.3690   -0.3340 C.ar    1  UNL1       -0.0454
      5  C4        -1.3060   -0.7420    0.4560 C.ar    1  UNL1        0.0457
      6  C5        -0.3000   -1.4940    1.1890 C.ar    1  UNL1        0.0770
      7  N1        -0.4990   -2.4340    2.1230 N.ar    1  UNL1       -0.2763
      8  N2         0.6470   -2.8810    2.5490 N.ar    1  UNL1       -0.1811
      9  C6         1.6580   -2.2660    1.9230 C.ar    1  UNL1        0.0575
     10  C7         1.0690   -1.3700    1.0440 C.ar    1  UNL1        0.0273
     11  C8         1.8130   -0.4930    0.1690 C.ar    1  UNL1       -0.0142
     12  C9         1.7150   -0.5560   -1.1950 C.ar    1  UNL1       -0.0512
     13  C10        2.4440    0.3020   -2.0230 C.ar    1  UNL1       -0.0259
     14  C11        3.2730    1.2230   -1.4160 C.ar    1  UNL1        0.1234
     15  F1         4.0210    2.0990   -2.1470 F       1  UNL1       -0.2055
     16  C12        3.3940    1.3120   -0.0570 C.ar    1  UNL1       -0.0259
     17  C13        2.6500    0.4390    0.7220 C.ar    1  UNL1       -0.0512
     18  C14       -1.3880    0.6570    0.5000 C.ar    1  UNL1        0.1713
     19  O2        -0.4420    1.3080    1.2970 O.3     1  UNL1       -0.5028
     20  C15       -2.3370    1.3700   -0.1950 C.ar    1  UNL1        0.2012
     21  O3        -2.4190    2.7570   -0.1520 O.3     1  UNL1       -0.5009
     22 H          -4.8639    0.9576   -2.2212 H       1  UNL1        0.2923
     23 H          -3.8857   -1.1796   -1.6135 H       1  UNL1        0.0655
     24 H          -2.2295   -2.3985   -0.4037 H       1  UNL1        0.0626
     25 H          -1.3794   -2.7405    2.4394 H       1  UNL1        0.1889
     26 H           2.6676   -2.4259    2.0653 H       1  UNL1        0.0854
     27 H           1.0871   -1.2545   -1.6225 H       1  UNL1        0.0624
     28 H           2.3652    0.2487   -3.0506 H       1  UNL1        0.0646
     29 H           4.0205    2.0083    0.3761 H       1  UNL1        0.0646
     30 H           2.7295    0.4933    1.7495 H       1  UNL1        0.0624
     31 H           0.1988    0.8097    1.7650 H       1  UNL1        0.2923
     32 H          -3.0821    3.2025   -0.6417 H       1  UNL1        0.2924
@<TRIPOS>BOND
     1     1     2    1
     2     2     3   ar
     3     2    20   ar
     4     3     4   ar
     5     4     5   ar
     6     5     6    1
     7     5    18   ar
     8     6     7   ar
     9     6    10   ar
    10     7     8   ar
    11     8     9   ar
    12     9    10   ar
    13    10    11    1
    14    11    12   ar
    15    11    17   ar
    16    12    13   ar
    17    13    14   ar
    18    14    15    1
    19    14    16   ar
    20    16    17   ar
    21    18    19    1
    22    18    20   ar
    23    20    21    1
    24     1    22    1
    25     3    23    1
    26     4    24    1
    27     7    25    1
    28     9    26    1
    29    12    27    1
    30    13    28    1
    31    16    29    1
    32    17    30    1
    33    19    31    1
    34    21    32    1
@<TRIPOS>MOLECULE
../data/bude_mols_rdkit_confs2/molecule_53.pdb
 32 34 0 0 0
SMALL
GASTEIGER

@<TRIPOS>ATOM
      1  O1         3.4860    2.8780   -1.2250 O.3     1  UNL1       -0.5032
      2  C1         2.7190    1.8830   -0.6320 C.ar    1  UNL1        0.1620
      3  C2         1.7400    2.1980    0.2790 C.ar    1  UNL1       -0.0157
      4  C3         0.9890    1.1700    0.8540 C.ar    1  UNL1       -0.0454
      5  C4         1.1940   -0.1500    0.5420 C.ar    1  UNL1        0.0457
      6  C5         0.4220   -1.2420    1.1220 C.ar    1  UNL1        0.0770
      7  N1         0.8940   -2.2790    1.8720 N.ar    1  UNL1       -0.2763
      8  N2        -0.1040   -3.0770    2.2060 N.ar    1  UNL1       -0.1811
      9  C6        -1.2620   -2.6160    1.7020 C.ar    1  UNL1        0.0575
     10  C7        -0.9300   -1.4440    1.0090 C.ar    1  UNL1        0.0273
     11  C8        -1.8950   -0.6080    0.3150 C.ar    1  UNL1       -0.0142
     12  C9        -2.4160    0.5160    0.9000 C.ar    1  UNL1       -0.0512
     13  C10       -3.3260    1.3090    0.2500 C.ar    1  UNL1       -0.0259
     14  C11       -3.7330    0.9760   -1.0270 C.ar    1  UNL1        0.1234
     15  F1        -4.6440    1.7650   -1.6850 F       1  UNL1       -0.2055
     16  C12       -3.1990   -0.1590   -1.6010 C.ar    1  UNL1       -0.0259
     17  C13       -2.2890   -0.9560   -0.9530 C.ar    1  UNL1       -0.0512
     18  C14        2.2080   -0.4210   -0.3960 C.ar    1  UNL1        0.1713
     19  O2         2.4010   -1.7470   -0.6980 O.3     1  UNL1       -0.5028
     20  C15        2.9690    0.5480   -0.9850 C.ar    1  UNL1        0.2012
     21  O3         3.9740    0.3070   -1.9110 O.3     1  UNL1       -0.5009
     22 H           3.3381    3.7769   -1.0057 H       1  UNL1        0.2923
     23 H           1.5617    3.1816    0.5353 H       1  UNL1        0.0655
     24 H           0.2544    1.4120    1.5373 H       1  UNL1        0.0626
     25 H           1.8358   -2.4124    2.1259 H       1  UNL1        0.1889
     26 H          -2.1988   -3.0368    1.8040 H       1  UNL1        0.0854
     27 H          -2.1160    0.7721    1.8536 H       1  UNL1        0.0624
     28 H          -3.7048    2.1502    0.7124 H       1  UNL1        0.0646
     29 H          -3.4953   -0.4189   -2.5548 H       1  UNL1        0.0646
     30 H          -1.9087   -1.7997   -1.4097 H       1  UNL1        0.0624
     31 H           1.8725   -2.4028   -0.2873 H       1  UNL1        0.2923
     32 H           4.4570    1.0226   -2.2751 H       1  UNL1        0.2924
@<TRIPOS>BOND
     1     1     2    1
     2     2     3   ar
     3     2    20   ar
     4     3     4   ar
     5     4     5   ar
     6     5     6    1
     7     5    18   ar
     8     6     7   ar
     9     6    10   ar
    10     7     8   ar
    11     8     9   ar
    12     9    10   ar
    13    10    11    1
    14    11    12   ar
    15    11    17   ar
    16    12    13   ar
    17    13    14   ar
    18    14    15    1
    19    14    16   ar
    20    16    17   ar
    21    18    19    1
    22    18    20   ar
    23    20    21    1
    24     1    22    1
    25     3    23    1
    26     4    24    1
    27     7    25    1
    28     9    26    1
    29    12    27    1
    30    13    28    1
    31    16    29    1
    32    17    30    1
    33    19    31    1
    34    21    32    1
@<TRIPOS>MOLECULE
../data/bude_mols_rdkit_confs2/molecule_53.pdb
 32 34 0 0 0
SMALL
GASTEIGER

@<TRIPOS>ATOM
      1  O1        -3.9000    1.3420   -2.4130 O.3     1  UNL1       -0.5032
      2  C1        -3.0250    0.7180   -1.5310 C.ar    1  UNL1        0.1620
      3  C2        -2.3510   -0.4350   -1.8690 C.ar    1  UNL1       -0.0157
      4  C3        -1.4850   -1.0470   -0.9870 C.ar    1  UNL1       -0.0454
      5  C4        -1.2410   -0.5500    0.2770 C.ar    1  UNL1        0.0457
      6  C5        -0.3200   -1.1920    1.2070 C.ar    1  UNL1        0.0770
      7  N1        -0.6410   -1.9420    2.2900 N.ar    1  UNL1       -0.2763
      8  N2         0.4220   -2.3760    2.9070 N.ar    1  UNL1       -0.1811
      9  C6         1.4860   -1.9260    2.2480 C.ar    1  UNL1        0.0575
     10  C7         1.0380   -1.1830    1.1820 C.ar    1  UNL1        0.0273
     11  C8         1.9150   -0.5230    0.2350 C.ar    1  UNL1       -0.0142
     12  C9         1.9970   -0.8300   -1.0980 C.ar    1  UNL1       -0.0512
     13  C10        2.8610   -0.1540   -1.9670 C.ar    1  UNL1       -0.0259
     14  C11        3.6660    0.8560   -1.4900 C.ar    1  UNL1        0.1234
     15  F1         4.5210    1.5300   -2.3230 F       1  UNL1       -0.2055
     16  C12        3.5930    1.1730   -0.1510 C.ar    1  UNL1       -0.0259
     17  C13        2.7310    0.4950    0.7020 C.ar    1  UNL1       -0.0512
     18  C14       -1.9260    0.6130    0.6090 C.ar    1  UNL1        0.1713
     19  O2        -1.7000    1.1290    1.8630 O.3     1  UNL1       -0.5028
     20  C15       -2.7950    1.2350   -0.2650 C.ar    1  UNL1        0.2012
     21  O3        -3.4800    2.3910    0.0540 O.3     1  UNL1       -0.5009
     22 H          -4.0442    0.9795   -3.2649 H       1  UNL1        0.2923
     23 H          -2.4973   -0.8499   -2.8025 H       1  UNL1        0.0655
     24 H          -1.0013   -1.9091   -1.2835 H       1  UNL1        0.0626
     25 H          -1.5633   -2.1350    2.5752 H       1  UNL1        0.1889
     26 H           2.4726   -2.1032    2.4934 H       1  UNL1        0.0854
     27 H           1.4018   -1.5848   -1.4736 H       1  UNL1        0.0624
     28 H           2.8947   -0.4126   -2.9655 H       1  UNL1        0.0646
     29 H           4.1889    1.9271    0.2248 H       1  UNL1        0.0646
     30 H           2.6979    0.7539    1.7004 H       1  UNL1        0.0624
     31 H          -1.1079    0.6978    2.4473 H       1  UNL1        0.2923
     32 H          -4.0604    2.7792   -0.5708 H       1  UNL1        0.2924
@<TRIPOS>BOND
     1     1     2    1
     2     2     3   ar
     3     2    20   ar
     4     3     4   ar
     5     4     5   ar
     6     5     6    1
     7     5    18   ar
     8     6     7   ar
     9     6    10   ar
    10     7     8   ar
    11     8     9   ar
    12     9    10   ar
    13    10    11    1
    14    11    12   ar
    15    11    17   ar
    16    12    13   ar
    17    13    14   ar
    18    14    15    1
    19    14    16   ar
    20    16    17   ar
    21    18    19    1
    22    18    20   ar
    23    20    21    1
    24     1    22    1
    25     3    23    1
    26     4    24    1
    27     7    25    1
    28     9    26    1
    29    12    27    1
    30    13    28    1
    31    16    29    1
    32    17    30    1
    33    19    31    1
    34    21    32    1
@<TRIPOS>MOLECULE
../data/bude_mols_rdkit_confs2/molecule_53.pdb
 32 34 0 0 0
SMALL
GASTEIGER

@<TRIPOS>ATOM
      1  O1        -4.0020    1.8380    1.2460 O.3     1  UNL1       -0.5032
      2  C1        -3.0330    0.9700    0.7450 C.ar    1  UNL1        0.1620
      3  C2        -2.1240    0.4270    1.6510 C.ar    1  UNL1       -0.0157
      4  C3        -1.1630   -0.4220    1.2140 C.ar    1  UNL1       -0.0454
      5  C4        -1.0180   -0.7980   -0.1070 C.ar    1  UNL1        0.0457
      6  C5         0.0200   -1.7090   -0.5520 C.ar    1  UNL1        0.0770
      7  N1        -0.2200   -2.9110   -1.0970 N.ar    1  UNL1       -0.2763
      8  N2         0.9630   -3.4600   -1.3780 N.ar    1  UNL1       -0.1811
      9  C6         1.9640   -2.6280   -1.0220 C.ar    1  UNL1        0.0575
     10  C7         1.3750   -1.5000   -0.4910 C.ar    1  UNL1        0.0273
     11  C8         2.0130   -0.3090    0.0360 C.ar    1  UNL1       -0.0142
     12  C9         2.3350    0.7560   -0.7920 C.ar    1  UNL1       -0.0512
     13  C10        2.9320    1.8920   -0.3410 C.ar    1  UNL1       -0.0259
     14  C11        3.2470    2.0310    0.9920 C.ar    1  UNL1        0.1234
     15  F1         3.8420    3.1690    1.4250 F       1  UNL1       -0.2055
     16  C12        2.9330    0.9750    1.8390 C.ar    1  UNL1       -0.0259
     17  C13        2.3300   -0.1670    1.3700 C.ar    1  UNL1       -0.0512
     18  C14       -1.9210   -0.2570   -1.0010 C.ar    1  UNL1        0.1713
     19  O2        -1.8260   -0.6010   -2.3600 O.3     1  UNL1       -0.5028
     20  C15       -2.9150    0.6170   -0.5700 C.ar    1  UNL1        0.2012
     21  O3        -3.7940    1.1300   -1.5040 O.3     1  UNL1       -0.5009
     22 H          -4.0248    2.0366    2.1614 H       1  UNL1        0.2923
     23 H          -2.1827    0.6709    2.6520 H       1  UNL1        0.0655
     24 H          -0.5029   -0.8091    1.9064 H       1  UNL1        0.0626
     25 H          -1.1039   -3.3129   -1.2593 H       1  UNL1        0.1889
     26 H           2.9757   -2.8024   -1.1270 H       1  UNL1        0.0854
     27 H           2.1113    0.6832   -1.7968 H       1  UNL1        0.0624
     28 H           3.1501    2.6541   -1.0019 H       1  UNL1        0.0646
     29 H           3.1579    1.0503    2.8434 H       1  UNL1        0.0646
     30 H           2.1107   -0.9315    2.0276 H       1  UNL1        0.0624
     31 H          -1.1564   -1.1894   -2.6486 H       1  UNL1        0.2923
     32 H          -4.4707    1.7200   -1.2359 H       1  UNL1        0.2924
@<TRIPOS>BOND
     1     1     2    1
     2     2     3   ar
     3     2    20   ar
     4     3     4   ar
     5     4     5   ar
     6     5     6    1
     7     5    18   ar
     8     6     7   ar
     9     6    10   ar
    10     7     8   ar
    11     8     9   ar
    12     9    10   ar
    13    10    11    1
    14    11    12   ar
    15    11    17   ar
    16    12    13   ar
    17    13    14   ar
    18    14    15    1
    19    14    16   ar
    20    16    17   ar
    21    18    19    1
    22    18    20   ar
    23    20    21    1
    24     1    22    1
    25     3    23    1
    26     4    24    1
    27     7    25    1
    28     9    26    1
    29    12    27    1
    30    13    28    1
    31    16    29    1
    32    17    30    1
    33    19    31    1
    34    21    32    1
@<TRIPOS>MOLECULE
../data/bude_mols_rdkit_confs2/molecule_53.pdb
 32 34 0 0 0
SMALL
GASTEIGER

@<TRIPOS>ATOM
      1  O1        -4.3080    0.3040    2.0080 O.3     1  UNL1       -0.5032
      2  C1        -3.2150    0.1690    1.1660 C.ar    1  UNL1        0.1620
      3  C2        -1.9160    0.3110    1.5840 C.ar    1  UNL1       -0.0157
      4  C3        -0.8600    0.1610    0.6780 C.ar    1  UNL1       -0.0454
      5  C4        -1.0510   -0.1310   -0.6480 C.ar    1  UNL1        0.0457
      6  C5         0.0440   -0.2860   -1.5980 C.ar    1  UNL1        0.0770
      7  N1        -0.1220   -0.5300   -2.9210 N.ar    1  UNL1       -0.2763
      8  N2         1.0810   -0.6440   -3.5200 N.ar    1  UNL1       -0.1811
      9  C6         2.0260   -0.4760   -2.6070 C.ar    1  UNL1        0.0575
     10  C7         1.3800   -0.2450   -1.3680 C.ar    1  UNL1        0.0273
     11  C8         2.1150   -0.0000   -0.1500 C.ar    1  UNL1       -0.0142
     12  C9         2.5020    1.2870    0.2490 C.ar    1  UNL1       -0.0512
     13  C10        3.2320    1.5310    1.3850 C.ar    1  UNL1       -0.0259
     14  C11        3.6230    0.4880    2.2010 C.ar    1  UNL1        0.1234
     15  F1         4.3450    0.7550    3.3160 F       1  UNL1       -0.2055
     16  C12        3.2500   -0.7850    1.8200 C.ar    1  UNL1       -0.0259
     17  C13        2.5170   -1.0320    0.6790 C.ar    1  UNL1       -0.0512
     18  C14       -2.3880   -0.2680   -1.0300 C.ar    1  UNL1        0.1713
     19  O2        -2.6860   -0.5620   -2.3450 O.3     1  UNL1       -0.5028
     20  C15       -3.4490   -0.1230   -0.1510 C.ar    1  UNL1        0.2012
     21  O3        -4.7290   -0.2840   -0.6610 O.3     1  UNL1       -0.5009
     22 H          -4.1793    0.5036    2.9144 H       1  UNL1        0.2923
     23 H          -1.7164    0.5298    2.5726 H       1  UNL1        0.0655
     24 H           0.1057    0.2753    1.0234 H       1  UNL1        0.0626
     25 H          -0.9909   -0.6118   -3.3766 H       1  UNL1        0.1889
     26 H           3.0448   -0.5076   -2.7687 H       1  UNL1        0.0854
     27 H           2.2249    2.0884   -0.3392 H       1  UNL1        0.0624
     28 H           3.4902    2.4995    1.6309 H       1  UNL1        0.0646
     29 H           3.5306   -1.5824    2.4119 H       1  UNL1        0.0646
     30 H           2.2638   -2.0033    0.4391 H       1  UNL1        0.0624
     31 H          -1.9955   -0.6676   -2.9695 H       1  UNL1        0.2923
     32 H          -5.4725   -0.1937   -0.0979 H       1  UNL1        0.2924
@<TRIPOS>BOND
     1     1     2    1
     2     2     3   ar
     3     2    20   ar
     4     3     4   ar
     5     4     5   ar
     6     5     6    1
     7     5    18   ar
     8     6     7   ar
     9     6    10   ar
    10     7     8   ar
    11     8     9   ar
    12     9    10   ar
    13    10    11    1
    14    11    12   ar
    15    11    17   ar
    16    12    13   ar
    17    13    14   ar
    18    14    15    1
    19    14    16   ar
    20    16    17   ar
    21    18    19    1
    22    18    20   ar
    23    20    21    1
    24     1    22    1
    25     3    23    1
    26     4    24    1
    27     7    25    1
    28     9    26    1
    29    12    27    1
    30    13    28    1
    31    16    29    1
    32    17    30    1
    33    19    31    1
    34    21    32    1
@<TRIPOS>MOLECULE
../data/bude_mols_rdkit_confs2/molecule_53.pdb
 32 34 0 0 0
SMALL
GASTEIGER

@<TRIPOS>ATOM
      1  O1        -4.0310    0.8570    2.2120 O.3     1  UNL1       -0.5032
      2  C1        -3.0910    0.3840    1.3240 C.ar    1  UNL1        0.1620
      3  C2        -2.8340   -0.9850    1.3790 C.ar    1  UNL1       -0.0157
      4  C3        -1.9070   -1.4920    0.5140 C.ar    1  UNL1       -0.0454
      5  C4        -1.2240   -0.7160   -0.4000 C.ar    1  UNL1        0.0457
      6  C5        -0.2510   -1.3440   -1.2880 C.ar    1  UNL1        0.0770
      7  N1        -0.4730   -2.2320   -2.2760 N.ar    1  UNL1       -0.2763
      8  N2         0.6880   -2.5630   -2.8580 N.ar    1  UNL1       -0.1811
      9  C6         1.6990   -1.9050   -2.2710 C.ar    1  UNL1        0.0575
     10  C7         1.1050   -1.1290   -1.2720 C.ar    1  UNL1        0.0273
     11  C8         1.8310   -0.2470   -0.3730 C.ar    1  UNL1       -0.0142
     12  C9         1.8090   -0.5100    0.9790 C.ar    1  UNL1       -0.0512
     13  C10        2.5030    0.3310    1.8550 C.ar    1  UNL1       -0.0259
     14  C11        3.1920    1.3980    1.3540 C.ar    1  UNL1        0.1234
     15  F1         3.8900    2.2560    2.1630 F       1  UNL1       -0.2055
     16  C12        3.2310    1.6870   -0.0010 C.ar    1  UNL1       -0.0259
     17  C13        2.5360    0.8380   -0.8340 C.ar    1  UNL1       -0.0512
     18  C14       -1.4660    0.6260   -0.4650 C.ar    1  UNL1        0.1713
     19  O2        -0.8180    1.4690   -1.3600 O.3     1  UNL1       -0.5028
     20  C15       -2.4110    1.1730    0.4100 C.ar    1  UNL1        0.2012
     21  O3        -2.6350    2.5320    0.3220 O.3     1  UNL1       -0.5009
     22 H          -4.4542    0.2673    2.8045 H       1  UNL1        0.2923
     23 H          -3.3273   -1.5942    2.0502 H       1  UNL1        0.0655
     24 H          -1.7077   -2.5041    0.5453 H       1  UNL1        0.0626
     25 H          -1.3556   -2.5850   -2.5322 H       1  UNL1        0.1889
     26 H           2.7021   -1.9601   -2.5070 H       1  UNL1        0.0854
     27 H           1.2846   -1.3211    1.3426 H       1  UNL1        0.0624
     28 H           2.4944    0.1468    2.8704 H       1  UNL1        0.0646
     29 H           3.7544    2.4974   -0.3674 H       1  UNL1        0.0646
     30 H           2.5454    1.0254   -1.8488 H       1  UNL1        0.0624
     31 H          -0.1819    1.1218   -1.9540 H       1  UNL1        0.2923
     32 H          -3.2591    2.9416    0.8883 H       1  UNL1        0.2924
@<TRIPOS>BOND
     1     1     2    1
     2     2     3   ar
     3     2    20   ar
     4     3     4   ar
     5     4     5   ar
     6     5     6    1
     7     5    18   ar
     8     6     7   ar
     9     6    10   ar
    10     7     8   ar
    11     8     9   ar
    12     9    10   ar
    13    10    11    1
    14    11    12   ar
    15    11    17   ar
    16    12    13   ar
    17    13    14   ar
    18    14    15    1
    19    14    16   ar
    20    16    17   ar
    21    18    19    1
    22    18    20   ar
    23    20    21    1
    24     1    22    1
    25     3    23    1
    26     4    24    1
    27     7    25    1
    28     9    26    1
    29    12    27    1
    30    13    28    1
    31    16    29    1
    32    17    30    1
    33    19    31    1
    34    21    32    1
