@<TRIPOS>MOLECULE
../data/bude_mols_rdkit_confs2/molecule_98.pdb
 59 63 0 0 0
SMALL
GASTEIGER

@<TRIPOS>ATOM
      1  O1         0.8670    2.0260   -0.7000 O.2     1  UNL1       -0.2700
      2  C1         1.1260    0.9520    0.0370 C.2     1  UNL1        0.2467
      3  C2         0.0450    0.5500    0.9020 C.ar    1  UNL1        0.0372
      4  C3         0.0710   -0.4610    1.8220 C.ar    1  UNL1       -0.0496
      5  C4        -1.0280   -0.7910    2.5890 C.ar    1  UNL1       -0.0608
      6  C5        -2.1940   -0.0800    2.4250 C.ar    1  UNL1       -0.0582
      7  C6        -2.2980    0.9420    1.5270 C.ar    1  UNL1       -0.0408
      8  C7        -3.5670    1.6860    1.3510 C.3     1  UNL1        0.0168
      9  C8        -4.1750    1.2960    0.0950 C.ar    1  UNL1        0.0693
     10  N1        -3.8860    2.0920   -0.9830 N.ar    1  UNL1       -0.1753
     11  N2        -4.3240    1.8300   -2.1960 N.ar    1  UNL1       -0.2427
     12  C9        -5.0930    0.7370   -2.4180 C.ar    1  UNL1        0.2682
     13  O2        -5.5130    0.4820   -3.5720 O.2     1  UNL1       -0.2661
     14  C10       -5.4240   -0.1040   -1.3850 C.ar    1  UNL1        0.0232
     15  C11       -4.9420    0.2080   -0.1200 C.ar    1  UNL1       -0.0158
     16  C12       -5.3360   -0.6700    0.9640 C.3     1  UNL1       -0.0255
     17  C13       -6.8550   -0.8710    0.9010 C.3     1  UNL1       -0.0487
     18  C14       -7.3560   -1.1600   -0.4690 C.3     1  UNL1       -0.0486
     19  C15       -6.2510   -1.3250   -1.5120 C.3     1  UNL1       -0.0222
     20  C16       -1.1700    1.2290    0.7880 C.ar    1  UNL1       -0.0461
     21  N3         2.3980    0.4360   -0.1840 N.am    1  UNL1       -0.2945
     22  C17        2.9570   -0.7050    0.4380 C.3     1  UNL1        0.0308
     23  C18        4.2840   -1.1610   -0.2090 C.3     1  UNL1        0.0294
     24  N4         5.1700   -0.0530   -0.3820 N.pl3   1  UNL1       -0.3122
     25  C19        6.5660   -0.2390   -0.4520 C.ar    1  UNL1        0.1213
     26  C20        7.1730   -1.4700   -0.3990 C.ar    1  UNL1       -0.0217
     27  C21        8.5320   -1.6510   -0.4680 C.ar    1  UNL1       -0.0571
     28  C22        9.3360   -0.5420   -0.5990 C.ar    1  UNL1       -0.0435
     29  C23        8.7390    0.6910   -0.6530 C.ar    1  UNL1        0.0297
     30  N5         7.4120    0.8180   -0.5820 N.ar    1  UNL1       -0.2403
     31  C24        4.6410    1.3030   -0.4970 C.3     1  UNL1        0.0294
     32  C25        3.2880    1.1210   -1.1650 C.3     1  UNL1        0.0308
     33 H           0.9440   -0.9968    1.9475 H       1  UNL1        0.0625
     34 H          -0.9757   -1.5598    3.2754 H       1  UNL1        0.0618
     35 H          -3.0154   -0.3271    2.9988 H       1  UNL1        0.0620
     36 H          -3.3676    2.7372    1.3414 H       1  UNL1        0.0377
     37 H          -4.2318    1.4608    2.1586 H       1  UNL1        0.0377
     38 H          -4.0927    2.4287   -2.9426 H       1  UNL1        0.1921
     39 H          -5.0691   -0.2282    1.9013 H       1  UNL1        0.0314
     40 H          -4.8377   -1.6124    0.8716 H       1  UNL1        0.0314
     41 H          -7.3300    0.0200    1.2549 H       1  UNL1        0.0268
     42 H          -7.0866   -1.7212    1.5080 H       1  UNL1        0.0268
     43 H          -7.9885   -0.3524   -0.7735 H       1  UNL1        0.0269
     44 H          -7.8763   -2.0936   -0.4183 H       1  UNL1        0.0269
     45 H          -5.6674   -2.1982   -1.3076 H       1  UNL1        0.0315
     46 H          -6.6436   -1.4453   -2.5001 H       1  UNL1        0.0315
     47 H          -1.2275    1.9989    0.1032 H       1  UNL1        0.0628
     48 H           2.2528   -1.5079    0.3720 H       1  UNL1        0.0480
     49 H           3.1715   -0.4416    1.4526 H       1  UNL1        0.0480
     50 H           4.0772   -1.5975   -1.1638 H       1  UNL1        0.0480
     51 H           4.7513   -1.8773    0.4340 H       1  UNL1        0.0480
     52 H           6.5743   -2.3050   -0.3019 H       1  UNL1        0.0652
     53 H           8.9414   -2.5973   -0.4227 H       1  UNL1        0.0619
     54 H          10.3622   -0.6360   -0.6552 H       1  UNL1        0.0633
     55 H           9.3251    1.5348   -0.7501 H       1  UNL1        0.0830
     56 H           5.2830    1.9108   -1.0998 H       1  UNL1        0.0480
     57 H           4.5671    1.7954    0.4501 H       1  UNL1        0.0480
     58 H           2.8783    2.0738   -1.4280 H       1  UNL1        0.0480
     59 H           3.3821    0.5421   -2.0599 H       1  UNL1        0.0480
@<TRIPOS>BOND
     1     1     2    2
     2     2     3    1
     3     2    21   am
     4     3     4   ar
     5     3    20   ar
     6     4     5   ar
     7     5     6   ar
     8     6     7   ar
     9     7     8    1
    10     7    20   ar
    11     8     9    1
    12     9    10   ar
    13     9    15   ar
    14    10    11   ar
    15    11    12   ar
    16    12    13    2
    17    12    14   ar
    18    14    15   ar
    19    14    19    1
    20    15    16    1
    21    16    17    1
    22    17    18    1
    23    18    19    1
    24    21    22    1
    25    21    32    1
    26    22    23    1
    27    23    24    1
    28    24    25    1
    29    24    31    1
    30    25    26   ar
    31    25    30   ar
    32    26    27   ar
    33    27    28   ar
    34    28    29   ar
    35    29    30   ar
    36    31    32    1
    37     4    33    1
    38     5    34    1
    39     6    35    1
    40     8    36    1
    41     8    37    1
    42    11    38    1
    43    16    39    1
    44    16    40    1
    45    17    41    1
    46    17    42    1
    47    18    43    1
    48    18    44    1
    49    19    45    1
    50    19    46    1
    51    20    47    1
    52    22    48    1
    53    22    49    1
    54    23    50    1
    55    23    51    1
    56    26    52    1
    57    27    53    1
    58    28    54    1
    59    29    55    1
    60    31    56    1
    61    31    57    1
    62    32    58    1
    63    32    59    1
@<TRIPOS>MOLECULE
../data/bude_mols_rdkit_confs2/molecule_98.pdb
 59 63 0 0 0
SMALL
GASTEIGER

@<TRIPOS>ATOM
      1  O1         0.6700    2.0190   -1.2570 O.2     1  UNL1       -0.2700
      2  C1         1.0310    1.4480   -0.1340 C.2     1  UNL1        0.2467
      3  C2        -0.0620    1.2350    0.7810 C.ar    1  UNL1        0.0372
      4  C3         0.0950    0.6030    1.9770 C.ar    1  UNL1       -0.0496
      5  C4        -0.9680    0.4300    2.8340 C.ar    1  UNL1       -0.0608
      6  C5        -2.2100    0.8980    2.4870 C.ar    1  UNL1       -0.0582
      7  C6        -2.4250    1.5390    1.2980 C.ar    1  UNL1       -0.0408
      8  C7        -3.7680    2.0260    0.9450 C.3     1  UNL1        0.0168
      9  C8        -4.4420    1.3450   -0.1490 C.ar    1  UNL1        0.0693
     10  N1        -4.3540    1.8920   -1.4040 N.ar    1  UNL1       -0.1753
     11  N2        -4.9030    1.3210   -2.4600 N.ar    1  UNL1       -0.2427
     12  C9        -5.5860    0.1710   -2.3960 C.ar    1  UNL1        0.2682
     13  O2        -6.1160   -0.3810   -3.4170 O.2     1  UNL1       -0.2661
     14  C10       -5.7150   -0.4290   -1.1880 C.ar    1  UNL1        0.0232
     15  C11       -5.1320    0.1770   -0.0650 C.ar    1  UNL1       -0.0158
     16  C12       -5.3640   -0.5320    1.2000 C.3     1  UNL1       -0.0255
     17  C13       -4.8770   -1.9510    1.0150 C.3     1  UNL1       -0.0487
     18  C14       -5.5700   -2.6430   -0.1330 C.3     1  UNL1       -0.0486
     19  C15       -6.4360   -1.7080   -0.9420 C.3     1  UNL1       -0.0222
     20  C16       -1.3470    1.7000    0.4590 C.ar    1  UNL1       -0.0461
     21  N3         2.3830    1.1680   -0.0550 N.am    1  UNL1       -0.2945
     22  C17        3.2090    1.5390   -1.2540 C.3     1  UNL1        0.0308
     23  C18        4.0020    0.2570   -1.5700 C.3     1  UNL1        0.0294
     24  N4         4.9780    0.0560   -0.4910 N.pl3   1  UNL1       -0.3122
     25  C19        6.1870   -0.6500   -0.6910 C.ar    1  UNL1        0.1213
     26  C20        7.1750   -0.7450    0.2590 C.ar    1  UNL1       -0.0217
     27  C21        8.3460   -1.4410    0.0450 C.ar    1  UNL1       -0.0571
     28  C22        8.5730   -2.0880   -1.1690 C.ar    1  UNL1       -0.0435
     29  C23        7.5670   -1.9750   -2.1000 C.ar    1  UNL1        0.0297
     30  N5         6.4350   -1.2930   -1.8740 N.ar    1  UNL1       -0.2403
     31  C24        4.6220    0.6240    0.7760 C.3     1  UNL1        0.0294
     32  C25        3.1070    0.5810    1.0250 C.3     1  UNL1        0.0308
     33 H           1.0262    0.2480    2.2451 H       1  UNL1        0.0625
     34 H          -0.8309   -0.0512    3.7366 H       1  UNL1        0.0618
     35 H          -2.9997    0.7634    3.1376 H       1  UNL1        0.0620
     36 H          -3.6791    3.0585    0.6787 H       1  UNL1        0.0377
     37 H          -4.3716    1.8381    1.8083 H       1  UNL1        0.0377
     38 H          -4.8058    1.7611   -3.3353 H       1  UNL1        0.1921
     39 H          -6.4080   -0.5307    1.4345 H       1  UNL1        0.0314
     40 H          -4.8433   -0.0542    2.0034 H       1  UNL1        0.0314
     41 H          -5.0653   -2.5005    1.9136 H       1  UNL1        0.0268
     42 H          -3.8305   -1.9145    0.7948 H       1  UNL1        0.0268
     43 H          -6.1855   -3.4249    0.2604 H       1  UNL1        0.0269
     44 H          -4.8118   -3.0248   -0.7843 H       1  UNL1        0.0269
     45 H          -6.6731   -2.1668   -1.8791 H       1  UNL1        0.0315
     46 H          -7.3353   -1.5048   -0.3989 H       1  UNL1        0.0315
     47 H          -1.4883    2.1816   -0.4427 H       1  UNL1        0.0628
     48 H           3.8701    2.3486   -1.0249 H       1  UNL1        0.0480
     49 H           2.6130    1.8689   -2.0791 H       1  UNL1        0.0480
     50 H           4.5103    0.3646   -2.5054 H       1  UNL1        0.0480
     51 H           3.3428   -0.5830   -1.6393 H       1  UNL1        0.0480
     52 H           7.0353   -0.2772    1.1682 H       1  UNL1        0.0652
     53 H           9.0598   -1.4833    0.7891 H       1  UNL1        0.0619
     54 H           9.4390   -2.6170   -1.3567 H       1  UNL1        0.0633
     55 H           7.6891   -2.4365   -3.0149 H       1  UNL1        0.0830
     56 H           4.9466    1.6433    0.8003 H       1  UNL1        0.0480
     57 H           5.0975    0.0461    1.5407 H       1  UNL1        0.0480
     58 H           2.8015   -0.4385    1.1350 H       1  UNL1        0.0480
     59 H           2.8967    1.1395    1.9131 H       1  UNL1        0.0480
@<TRIPOS>BOND
     1     1     2    2
     2     2     3    1
     3     2    21   am
     4     3     4   ar
     5     3    20   ar
     6     4     5   ar
     7     5     6   ar
     8     6     7   ar
     9     7     8    1
    10     7    20   ar
    11     8     9    1
    12     9    10   ar
    13     9    15   ar
    14    10    11   ar
    15    11    12   ar
    16    12    13    2
    17    12    14   ar
    18    14    15   ar
    19    14    19    1
    20    15    16    1
    21    16    17    1
    22    17    18    1
    23    18    19    1
    24    21    22    1
    25    21    32    1
    26    22    23    1
    27    23    24    1
    28    24    25    1
    29    24    31    1
    30    25    26   ar
    31    25    30   ar
    32    26    27   ar
    33    27    28   ar
    34    28    29   ar
    35    29    30   ar
    36    31    32    1
    37     4    33    1
    38     5    34    1
    39     6    35    1
    40     8    36    1
    41     8    37    1
    42    11    38    1
    43    16    39    1
    44    16    40    1
    45    17    41    1
    46    17    42    1
    47    18    43    1
    48    18    44    1
    49    19    45    1
    50    19    46    1
    51    20    47    1
    52    22    48    1
    53    22    49    1
    54    23    50    1
    55    23    51    1
    56    26    52    1
    57    27    53    1
    58    28    54    1
    59    29    55    1
    60    31    56    1
    61    31    57    1
    62    32    58    1
    63    32    59    1
@<TRIPOS>MOLECULE
../data/bude_mols_rdkit_confs2/molecule_98.pdb
 59 63 0 0 0
SMALL
GASTEIGER

@<TRIPOS>ATOM
      1  O1         0.7620   -1.9600    0.7460 O.2     1  UNL1       -0.2700
      2  C1         1.1350   -0.8240    0.1950 C.2     1  UNL1        0.2467
      3  C2         0.1630   -0.2910   -0.7400 C.ar    1  UNL1        0.0372
      4  C3         0.3150    0.8450   -1.4960 C.ar    1  UNL1       -0.0496
      5  C4        -0.6650    1.3180   -2.3700 C.ar    1  UNL1       -0.0608
      6  C5        -1.8360    0.6360   -2.4960 C.ar    1  UNL1       -0.0582
      7  C6        -2.0440   -0.5030   -1.7690 C.ar    1  UNL1       -0.0408
      8  C7        -3.3030   -1.2510   -1.8960 C.3     1  UNL1        0.0168
      9  C8        -4.2160   -1.2070   -0.7430 C.ar    1  UNL1        0.0693
     10  N1        -4.2310   -2.2810    0.1130 N.ar    1  UNL1       -0.1753
     11  N2        -5.0070   -2.3560    1.1670 N.ar    1  UNL1       -0.2427
     12  C9        -5.8540   -1.3560    1.4730 C.ar    1  UNL1        0.2682
     13  O2        -6.5830   -1.4710    2.4980 O.2     1  UNL1       -0.2661
     14  C10       -5.9100   -0.2490    0.6810 C.ar    1  UNL1        0.0232
     15  C11       -5.0860   -0.1700   -0.4340 C.ar    1  UNL1       -0.0158
     16  C12       -5.0800    0.9860   -1.3280 C.3     1  UNL1       -0.0255
     17  C13       -6.1240    2.0010   -0.9920 C.3     1  UNL1       -0.0487
     18  C14       -7.3310    1.4230   -0.3400 C.3     1  UNL1       -0.0486
     19  C15       -6.8880    0.8250    1.0220 C.3     1  UNL1       -0.0222
     20  C16       -1.0670   -0.9490   -0.9160 C.ar    1  UNL1       -0.0461
     21  N3         2.3760   -0.3110    0.5820 N.am    1  UNL1       -0.2945
     22  C17        3.1200   -1.1510    1.5710 C.3     1  UNL1        0.0308
     23  C18        4.4900   -1.3780    0.9920 C.3     1  UNL1        0.0294
     24  N4         5.1490   -0.1010    0.9230 N.pl3   1  UNL1       -0.3122
     25  C19        6.5570    0.0470    0.8100 C.ar    1  UNL1        0.1213
     26  C20        7.3740   -1.0500    0.7570 C.ar    1  UNL1       -0.0217
     27  C21        8.7610   -0.9550    0.6470 C.ar    1  UNL1       -0.0571
     28  C22        9.2740    0.3230    0.5950 C.ar    1  UNL1       -0.0435
     29  C23        8.4590    1.4370    0.6480 C.ar    1  UNL1        0.0297
     30  N5         7.1170    1.2670    0.7550 N.ar    1  UNL1       -0.2403
     31  C24        4.3200    1.0800    0.9730 C.3     1  UNL1        0.0294
     32  C25        3.0130    0.8930    0.1780 C.3     1  UNL1        0.0308
     33 H           1.1968    1.3749   -1.4140 H       1  UNL1        0.0625
     34 H          -0.5029    2.1783   -2.9165 H       1  UNL1        0.0618
     35 H          -2.5663    0.9783   -3.1398 H       1  UNL1        0.0620
     36 H          -3.0546   -2.2764   -2.0741 H       1  UNL1        0.0377
     37 H          -3.8339   -0.7752   -2.6939 H       1  UNL1        0.0377
     38 H          -4.9696   -3.1542    1.7421 H       1  UNL1        0.1921
     39 H          -5.2495    0.6430   -2.3272 H       1  UNL1        0.0314
     40 H          -4.1286    1.4637   -1.2205 H       1  UNL1        0.0314
     41 H          -6.4277    2.4857   -1.8963 H       1  UNL1        0.0268
     42 H          -5.6856    2.6814   -0.2922 H       1  UNL1        0.0268
     43 H          -7.7468    0.6547   -0.9578 H       1  UNL1        0.0269
     44 H          -8.0767    2.1765   -0.1947 H       1  UNL1        0.0269
     45 H          -6.4245    1.5754    1.6278 H       1  UNL1        0.0315
     46 H          -7.7184    0.4458    1.5802 H       1  UNL1        0.0315
     47 H          -1.2435   -1.8107   -0.3763 H       1  UNL1        0.0628
     48 H           2.6191   -2.0857    1.7132 H       1  UNL1        0.0480
     49 H           3.1774   -0.6679    2.5240 H       1  UNL1        0.0480
     50 H           4.4069   -1.7993    0.0120 H       1  UNL1        0.0480
     51 H           5.0484   -2.0571    1.6019 H       1  UNL1        0.0480
     52 H           6.9451   -1.9877    0.8003 H       1  UNL1        0.0652
     53 H           9.3659   -1.7902    0.6070 H       1  UNL1        0.0619
     54 H          10.2948    0.4512    0.5143 H       1  UNL1        0.0633
     55 H           8.8649    2.3849    0.6068 H       1  UNL1        0.0830
     56 H           4.8635    1.9030    0.5581 H       1  UNL1        0.0480
     57 H           4.0649    1.2654    1.9955 H       1  UNL1        0.0480
     58 H           2.3611    1.7206    0.3652 H       1  UNL1        0.0480
     59 H           3.2375    0.8422   -0.8669 H       1  UNL1        0.0480
@<TRIPOS>BOND
     1     1     2    2
     2     2     3    1
     3     2    21   am
     4     3     4   ar
     5     3    20   ar
     6     4     5   ar
     7     5     6   ar
     8     6     7   ar
     9     7     8    1
    10     7    20   ar
    11     8     9    1
    12     9    10   ar
    13     9    15   ar
    14    10    11   ar
    15    11    12   ar
    16    12    13    2
    17    12    14   ar
    18    14    15   ar
    19    14    19    1
    20    15    16    1
    21    16    17    1
    22    17    18    1
    23    18    19    1
    24    21    22    1
    25    21    32    1
    26    22    23    1
    27    23    24    1
    28    24    25    1
    29    24    31    1
    30    25    26   ar
    31    25    30   ar
    32    26    27   ar
    33    27    28   ar
    34    28    29   ar
    35    29    30   ar
    36    31    32    1
    37     4    33    1
    38     5    34    1
    39     6    35    1
    40     8    36    1
    41     8    37    1
    42    11    38    1
    43    16    39    1
    44    16    40    1
    45    17    41    1
    46    17    42    1
    47    18    43    1
    48    18    44    1
    49    19    45    1
    50    19    46    1
    51    20    47    1
    52    22    48    1
    53    22    49    1
    54    23    50    1
    55    23    51    1
    56    26    52    1
    57    27    53    1
    58    28    54    1
    59    29    55    1
    60    31    56    1
    61    31    57    1
    62    32    58    1
    63    32    59    1
@<TRIPOS>MOLECULE
../data/bude_mols_rdkit_confs2/molecule_98.pdb
 59 63 0 0 0
SMALL
GASTEIGER

@<TRIPOS>ATOM
      1  O1         0.4980    0.0160   -2.4590 O.2     1  UNL1       -0.2700
      2  C1         1.0140   -0.9640   -1.7630 C.2     1  UNL1        0.2467
      3  C2         0.0820   -1.6340   -0.9190 C.ar    1  UNL1        0.0372
      4  C3         0.3630   -2.5440    0.0720 C.ar    1  UNL1       -0.0496
      5  C4        -0.6270   -3.2010    0.8220 C.ar    1  UNL1       -0.0608
      6  C5        -1.9480   -2.9400    0.5770 C.ar    1  UNL1       -0.0582
      7  C6        -2.2980   -2.0290   -0.4100 C.ar    1  UNL1       -0.0408
      8  C7        -3.7570   -1.8320   -0.6020 C.3     1  UNL1        0.0168
      9  C8        -4.3030   -0.9170    0.4340 C.ar    1  UNL1        0.0693
     10  N1        -4.9570   -1.5190    1.4720 N.ar    1  UNL1       -0.1753
     11  N2        -5.4850   -0.8620    2.4760 N.ar    1  UNL1       -0.2427
     12  C9        -5.3790    0.4750    2.4880 C.ar    1  UNL1        0.2682
     13  O2        -5.8800    1.1370    3.4460 O.2     1  UNL1       -0.2661
     14  C10       -4.7390    1.1570    1.4830 C.ar    1  UNL1        0.0232
     15  C11       -4.1920    0.4440    0.4380 C.ar    1  UNL1       -0.0158
     16  C12       -3.4940    1.1020   -0.6910 C.3     1  UNL1       -0.0255
     17  C13       -3.9380    2.5210   -0.9410 C.3     1  UNL1       -0.0487
     18  C14       -4.8950    3.0720    0.0530 C.3     1  UNL1       -0.0486
     19  C15       -4.6040    2.6310    1.4690 C.3     1  UNL1       -0.0222
     20  C16       -1.3100   -1.4220   -1.1070 C.ar    1  UNL1       -0.0461
     21  N3         2.3510   -1.1640   -1.9770 N.am    1  UNL1       -0.2945
     22  C17        3.1910   -2.1810   -1.4190 C.3     1  UNL1        0.0308
     23  C18        3.9000   -1.5310   -0.2390 C.3     1  UNL1        0.0294
     24  N4         4.4640   -0.2650   -0.7710 N.pl3   1  UNL1       -0.3122
     25  C19        5.0900    0.5630    0.2340 C.ar    1  UNL1        0.1213
     26  C20        5.8170    1.6840   -0.0690 C.ar    1  UNL1       -0.0217
     27  C21        6.3900    2.4450    0.9360 C.ar    1  UNL1       -0.0571
     28  C22        6.2440    2.0990    2.2560 C.ar    1  UNL1       -0.0435
     29  C23        5.5140    0.9770    2.5340 C.ar    1  UNL1        0.0297
     30  N5         4.9710    0.2580    1.5390 N.ar    1  UNL1       -0.2403
     31  C24        4.3930    0.1030   -2.1480 C.3     1  UNL1        0.0294
     32  C25        3.1150   -0.2270   -2.8630 C.3     1  UNL1        0.0308
     33 H           1.3523   -2.7557    0.2758 H       1  UNL1        0.0625
     34 H          -0.3593   -3.8772    1.5542 H       1  UNL1        0.0618
     35 H          -2.6808   -3.4185    1.1238 H       1  UNL1        0.0620
     36 H          -4.2517   -2.7781   -0.5313 H       1  UNL1        0.0377
     37 H          -3.9222   -1.3985   -1.5662 H       1  UNL1        0.0377
     38 H          -5.9477   -1.3380    3.2030 H       1  UNL1        0.1921
     39 H          -3.6753    0.5312   -1.5777 H       1  UNL1        0.0314
     40 H          -2.4563    1.1424   -0.4331 H       1  UNL1        0.0314
     41 H          -4.4041    2.5567   -1.9035 H       1  UNL1        0.0268
     42 H          -3.0568    3.1236   -0.8684 H       1  UNL1        0.0268
     43 H          -5.8807    2.7478   -0.2082 H       1  UNL1        0.0269
     44 H          -4.8017    4.1376    0.0268 H       1  UNL1        0.0269
     45 H          -3.6107    2.9144    1.7483 H       1  UNL1        0.0315
     46 H          -5.2763    3.0890    2.1641 H       1  UNL1        0.0315
     47 H          -1.5912   -0.7484   -1.8365 H       1  UNL1        0.0628
     48 H           3.9035   -2.5151   -2.1439 H       1  UNL1        0.0480
     49 H           2.6252   -3.0371   -1.1159 H       1  UNL1        0.0480
     50 H           4.6808   -2.1655    0.1251 H       1  UNL1        0.0480
     51 H           3.2345   -1.3582    0.5808 H       1  UNL1        0.0480
     52 H           5.9387    1.9637   -1.0549 H       1  UNL1        0.0652
     53 H           6.9353    3.2855    0.6885 H       1  UNL1        0.0619
     54 H           6.6683    2.6633    3.0087 H       1  UNL1        0.0633
     55 H           5.3798    0.6814    3.5136 H       1  UNL1        0.0830
     56 H           5.1899   -0.3952   -2.6594 H       1  UNL1        0.0480
     57 H           4.4573    1.1710   -2.1600 H       1  UNL1        0.0480
     58 H           2.5475    0.6641   -3.0328 H       1  UNL1        0.0480
     59 H           3.3126   -0.6746   -3.8146 H       1  UNL1        0.0480
@<TRIPOS>BOND
     1     1     2    2
     2     2     3    1
     3     2    21   am
     4     3     4   ar
     5     3    20   ar
     6     4     5   ar
     7     5     6   ar
     8     6     7   ar
     9     7     8    1
    10     7    20   ar
    11     8     9    1
    12     9    10   ar
    13     9    15   ar
    14    10    11   ar
    15    11    12   ar
    16    12    13    2
    17    12    14   ar
    18    14    15   ar
    19    14    19    1
    20    15    16    1
    21    16    17    1
    22    17    18    1
    23    18    19    1
    24    21    22    1
    25    21    32    1
    26    22    23    1
    27    23    24    1
    28    24    25    1
    29    24    31    1
    30    25    26   ar
    31    25    30   ar
    32    26    27   ar
    33    27    28   ar
    34    28    29   ar
    35    29    30   ar
    36    31    32    1
    37     4    33    1
    38     5    34    1
    39     6    35    1
    40     8    36    1
    41     8    37    1
    42    11    38    1
    43    16    39    1
    44    16    40    1
    45    17    41    1
    46    17    42    1
    47    18    43    1
    48    18    44    1
    49    19    45    1
    50    19    46    1
    51    20    47    1
    52    22    48    1
    53    22    49    1
    54    23    50    1
    55    23    51    1
    56    26    52    1
    57    27    53    1
    58    28    54    1
    59    29    55    1
    60    31    56    1
    61    31    57    1
    62    32    58    1
    63    32    59    1
@<TRIPOS>MOLECULE
../data/bude_mols_rdkit_confs2/molecule_98.pdb
 59 63 0 0 0
SMALL
GASTEIGER

@<TRIPOS>ATOM
      1  O1         1.1030   -2.4540    1.3220 O.2     1  UNL1       -0.2700
      2  C1         1.4180   -1.2240    1.6240 C.2     1  UNL1        0.2467
      3  C2         0.3070   -0.3370    1.6780 C.ar    1  UNL1        0.0372
      4  C3         0.4660    1.0230    1.7260 C.ar    1  UNL1       -0.0496
      5  C4        -0.6310    1.8830    1.8340 C.ar    1  UNL1       -0.0608
      6  C5        -1.8860    1.3390    1.8900 C.ar    1  UNL1       -0.0582
      7  C6        -2.0980   -0.0040    1.8440 C.ar    1  UNL1       -0.0408
      8  C7        -3.4490   -0.5720    1.8960 C.3     1  UNL1        0.0168
      9  C8        -3.9880   -1.0550    0.6210 C.ar    1  UNL1        0.0693
     10  N1        -3.9300   -2.3740    0.2720 N.ar    1  UNL1       -0.1753
     11  N2        -4.3660   -2.8420   -0.8740 N.ar    1  UNL1       -0.2427
     12  C9        -4.9010   -2.0250   -1.7780 C.ar    1  UNL1        0.2682
     13  O2        -5.3200   -2.4640   -2.8780 O.2     1  UNL1       -0.2661
     14  C10       -5.0050   -0.6840   -1.5220 C.ar    1  UNL1        0.0232
     15  C11       -4.5440   -0.2050   -0.3120 C.ar    1  UNL1       -0.0158
     16  C12       -4.6620    1.2130    0.0100 C.3     1  UNL1       -0.0255
     17  C13       -5.7510    1.9590   -0.7030 C.3     1  UNL1       -0.0487
     18  C14       -6.5450    1.1290   -1.6660 C.3     1  UNL1       -0.0486
     19  C15       -5.5970    0.2610   -2.5100 C.3     1  UNL1       -0.0222
     20  C16       -1.0130   -0.8330    1.7400 C.ar    1  UNL1       -0.0461
     21  N3         2.7510   -0.9970    1.8350 N.am    1  UNL1       -0.2945
     22  C17        3.5060    0.1550    2.2470 C.3     1  UNL1        0.0308
     23  C18        4.1580    0.7490    1.0170 C.3     1  UNL1        0.0294
     24  N4         4.7170   -0.3200    0.1800 N.pl3   1  UNL1       -0.3122
     25  C19        5.5050    0.1050   -0.9300 C.ar    1  UNL1        0.1213
     26  C20        5.7180    1.4400   -1.1770 C.ar    1  UNL1       -0.0217
     27  C21        6.4750    1.8570   -2.2410 C.ar    1  UNL1       -0.0571
     28  C22        7.0300    0.9360   -3.0760 C.ar    1  UNL1       -0.0435
     29  C23        6.8020   -0.4050   -2.8070 C.ar    1  UNL1        0.0297
     30  N5         6.0620   -0.7910   -1.7660 N.ar    1  UNL1       -0.2403
     31  C24        4.5430   -1.7180    0.3820 C.3     1  UNL1        0.0294
     32  C25        3.6980   -2.1420    1.5320 C.3     1  UNL1        0.0308
     33 H           1.4169    1.4215    1.6814 H       1  UNL1        0.0625
     34 H          -0.4976    2.9057    1.8707 H       1  UNL1        0.0618
     35 H          -2.6992    1.9694    1.9699 H       1  UNL1        0.0620
     36 H          -4.1091    0.1845    2.2659 H       1  UNL1        0.0377
     37 H          -3.3777   -1.4337    2.5263 H       1  UNL1        0.0377
     38 H          -4.2967   -3.8050   -1.0664 H       1  UNL1        0.1921
     39 H          -3.7311    1.6824   -0.2310 H       1  UNL1        0.0314
     40 H          -4.9157    1.2537    1.0487 H       1  UNL1        0.0314
     41 H          -5.3037    2.7650   -1.2463 H       1  UNL1        0.0268
     42 H          -6.4357    2.2908    0.0493 H       1  UNL1        0.0268
     43 H          -7.1062    1.7725   -2.3109 H       1  UNL1        0.0269
     44 H          -7.2121    0.4953   -1.1198 H       1  UNL1        0.0269
     45 H          -6.1373   -0.2681   -3.2670 H       1  UNL1        0.0315
     46 H          -4.8574    0.8374   -3.0254 H       1  UNL1        0.0315
     47 H          -1.1653   -1.8531    1.7059 H       1  UNL1        0.0628
     48 H           4.2568   -0.1356    2.9519 H       1  UNL1        0.0480
     49 H           2.8644    0.8738    2.7124 H       1  UNL1        0.0480
     50 H           4.9429    1.4115    1.3168 H       1  UNL1        0.0480
     51 H           3.4237    1.2876    0.4553 H       1  UNL1        0.0480
     52 H           5.2993    2.1432   -0.5483 H       1  UNL1        0.0652
     53 H           6.6235    2.8645   -2.4083 H       1  UNL1        0.0619
     54 H           7.6025    1.2268   -3.8839 H       1  UNL1        0.0633
     55 H           7.2140   -1.1207   -3.4259 H       1  UNL1        0.0830
     56 H           5.5138   -2.1458    0.5216 H       1  UNL1        0.0480
     57 H           4.0164   -2.0573   -0.4855 H       1  UNL1        0.0480
     58 H           3.1425   -3.0198    1.2754 H       1  UNL1        0.0480
     59 H           4.3024   -2.3723    2.3844 H       1  UNL1        0.0480
@<TRIPOS>BOND
     1     1     2    2
     2     2     3    1
     3     2    21   am
     4     3     4   ar
     5     3    20   ar
     6     4     5   ar
     7     5     6   ar
     8     6     7   ar
     9     7     8    1
    10     7    20   ar
    11     8     9    1
    12     9    10   ar
    13     9    15   ar
    14    10    11   ar
    15    11    12   ar
    16    12    13    2
    17    12    14   ar
    18    14    15   ar
    19    14    19    1
    20    15    16    1
    21    16    17    1
    22    17    18    1
    23    18    19    1
    24    21    22    1
    25    21    32    1
    26    22    23    1
    27    23    24    1
    28    24    25    1
    29    24    31    1
    30    25    26   ar
    31    25    30   ar
    32    26    27   ar
    33    27    28   ar
    34    28    29   ar
    35    29    30   ar
    36    31    32    1
    37     4    33    1
    38     5    34    1
    39     6    35    1
    40     8    36    1
    41     8    37    1
    42    11    38    1
    43    16    39    1
    44    16    40    1
    45    17    41    1
    46    17    42    1
    47    18    43    1
    48    18    44    1
    49    19    45    1
    50    19    46    1
    51    20    47    1
    52    22    48    1
    53    22    49    1
    54    23    50    1
    55    23    51    1
    56    26    52    1
    57    27    53    1
    58    28    54    1
    59    29    55    1
    60    31    56    1
    61    31    57    1
    62    32    58    1
    63    32    59    1
@<TRIPOS>MOLECULE
../data/bude_mols_rdkit_confs2/molecule_98.pdb
 59 63 0 0 0
SMALL
GASTEIGER

@<TRIPOS>ATOM
      1  O1         0.6170    1.5800   -2.0750 O.2     1  UNL1       -0.2700
      2  C1         1.1050    0.3570   -2.0700 C.2     1  UNL1        0.2467
      3  C2         0.2020   -0.7130   -1.7750 C.ar    1  UNL1        0.0372
      4  C3         0.5530   -2.0060   -1.5270 C.ar    1  UNL1       -0.0496
      5  C4        -0.3890   -3.0290   -1.2930 C.ar    1  UNL1       -0.0608
      6  C5        -1.7180   -2.7210   -1.3100 C.ar    1  UNL1       -0.0582
      7  C6        -2.1300   -1.4170   -1.5560 C.ar    1  UNL1       -0.0408
      8  C7        -3.5690   -1.1550   -1.5810 C.3     1  UNL1        0.0168
      9  C8        -4.2410   -1.2070   -0.2560 C.ar    1  UNL1        0.0693
     10  N1        -4.8910   -2.3120    0.1190 N.ar    1  UNL1       -0.1753
     11  N2        -5.4620   -2.4100    1.2860 N.ar    1  UNL1       -0.2427
     12  C9        -5.4130   -1.3880    2.1630 C.ar    1  UNL1        0.2682
     13  O2        -5.9600   -1.4600    3.3050 O.2     1  UNL1       -0.2661
     14  C10       -4.7650   -0.2350    1.8360 C.ar    1  UNL1        0.0232
     15  C11       -4.1650   -0.1420    0.5950 C.ar    1  UNL1       -0.0158
     16  C12       -3.5040    1.1540    0.2940 C.3     1  UNL1       -0.0255
     17  C13       -4.5070    2.2510    0.6250 C.3     1  UNL1       -0.0487
     18  C14       -5.0910    2.1540    1.9840 C.3     1  UNL1       -0.0486
     19  C15       -4.6560    0.9280    2.7450 C.3     1  UNL1       -0.0222
     20  C16       -1.1990   -0.4500   -1.7800 C.ar    1  UNL1       -0.0461
     21  N3         2.4640    0.3170   -2.3660 N.am    1  UNL1       -0.2945
     22  C17        3.3530   -0.7980   -2.5160 C.3     1  UNL1        0.0308
     23  C18        4.0970   -0.9270   -1.1880 C.3     1  UNL1        0.0294
     24  N4         4.5680    0.4320   -0.8400 N.pl3   1  UNL1       -0.3122
     25  C19        5.1040    0.6230    0.4840 C.ar    1  UNL1        0.1213
     26  C20        5.1430   -0.3950    1.3960 C.ar    1  UNL1       -0.0217
     27  C21        5.6630   -0.1950    2.6550 C.ar    1  UNL1       -0.0571
     28  C22        6.1590    1.0490    3.0250 C.ar    1  UNL1       -0.0435
     29  C23        6.1040    2.0470    2.0860 C.ar    1  UNL1        0.0297
     30  N5         5.5900    1.8300    0.8540 N.ar    1  UNL1       -0.2403
     31  C24        4.4910    1.4970   -1.7960 C.3     1  UNL1        0.0294
     32  C25        3.1950    1.6290   -2.5250 C.3     1  UNL1        0.0308
     33 H           1.5560   -2.2482   -1.5096 H       1  UNL1        0.0625
     34 H          -0.0778   -3.9961   -1.1116 H       1  UNL1        0.0618
     35 H          -2.4193   -3.4587   -1.1397 H       1  UNL1        0.0620
     36 H          -4.0281   -1.8847   -2.2147 H       1  UNL1        0.0377
     37 H          -3.6838   -0.1518   -1.9349 H       1  UNL1        0.0377
     38 H          -5.9340   -3.2390    1.5295 H       1  UNL1        0.1921
     39 H          -3.2378    1.1993   -0.7414 H       1  UNL1        0.0314
     40 H          -2.6083    1.2689    0.8679 H       1  UNL1        0.0314
     41 H          -5.3045    2.2017   -0.0867 H       1  UNL1        0.0268
     42 H          -3.9720    3.1769    0.5868 H       1  UNL1        0.0268
     43 H          -6.1569    2.1343    1.8929 H       1  UNL1        0.0269
     44 H          -4.7436    3.0031    2.5347 H       1  UNL1        0.0269
     45 H          -3.6427    1.0421    3.0693 H       1  UNL1        0.0315
     46 H          -5.2737    0.7861    3.6071 H       1  UNL1        0.0315
     47 H          -1.5206    0.5137   -1.9610 H       1  UNL1        0.0628
     48 H           4.0439   -0.6177   -3.3129 H       1  UNL1        0.0480
     49 H           2.8196   -1.6944   -2.7544 H       1  UNL1        0.0480
     50 H           4.9290   -1.5916   -1.2929 H       1  UNL1        0.0480
     51 H           3.4620   -1.3251   -0.4244 H       1  UNL1        0.0480
     52 H           4.7780   -1.3250    1.1373 H       1  UNL1        0.0652
     53 H           5.6846   -0.9757    3.3296 H       1  UNL1        0.0619
     54 H           6.5515    1.2147    3.9650 H       1  UNL1        0.0633
     55 H           6.4629    2.9846    2.3248 H       1  UNL1        0.0830
     56 H           5.2610    1.3412   -2.5225 H       1  UNL1        0.0480
     57 H           4.5980    2.3998   -1.2317 H       1  UNL1        0.0480
     58 H           2.6166    2.4253   -2.1052 H       1  UNL1        0.0480
     59 H           3.3590    1.8522   -3.5585 H       1  UNL1        0.0480
@<TRIPOS>BOND
     1     1     2    2
     2     2     3    1
     3     2    21   am
     4     3     4   ar
     5     3    20   ar
     6     4     5   ar
     7     5     6   ar
     8     6     7   ar
     9     7     8    1
    10     7    20   ar
    11     8     9    1
    12     9    10   ar
    13     9    15   ar
    14    10    11   ar
    15    11    12   ar
    16    12    13    2
    17    12    14   ar
    18    14    15   ar
    19    14    19    1
    20    15    16    1
    21    16    17    1
    22    17    18    1
    23    18    19    1
    24    21    22    1
    25    21    32    1
    26    22    23    1
    27    23    24    1
    28    24    25    1
    29    24    31    1
    30    25    26   ar
    31    25    30   ar
    32    26    27   ar
    33    27    28   ar
    34    28    29   ar
    35    29    30   ar
    36    31    32    1
    37     4    33    1
    38     5    34    1
    39     6    35    1
    40     8    36    1
    41     8    37    1
    42    11    38    1
    43    16    39    1
    44    16    40    1
    45    17    41    1
    46    17    42    1
    47    18    43    1
    48    18    44    1
    49    19    45    1
    50    19    46    1
    51    20    47    1
    52    22    48    1
    53    22    49    1
    54    23    50    1
    55    23    51    1
    56    26    52    1
    57    27    53    1
    58    28    54    1
    59    29    55    1
    60    31    56    1
    61    31    57    1
    62    32    58    1
    63    32    59    1
@<TRIPOS>MOLECULE
../data/bude_mols_rdkit_confs2/molecule_98.pdb
 59 63 0 0 0
SMALL
GASTEIGER

@<TRIPOS>ATOM
      1  O1         1.3630   -2.9190   -2.0730 O.2     1  UNL1       -0.2700
      2  C1         1.1030   -1.8460   -1.3580 C.2     1  UNL1        0.2467
      3  C2         0.0140   -1.0190   -1.7860 C.ar    1  UNL1        0.0372
      4  C3        -0.6320   -1.3670   -2.9910 C.ar    1  UNL1       -0.0496
      5  C4        -1.6770   -0.6260   -3.4340 C.ar    1  UNL1       -0.0608
      6  C5        -2.1680    0.4850   -2.7640 C.ar    1  UNL1       -0.0582
      7  C6        -1.5370    0.8110   -1.6020 C.ar    1  UNL1       -0.0408
      8  C7        -1.9570    1.9650   -0.7640 C.3     1  UNL1        0.0168
      9  C8        -2.7380    1.5080    0.4250 C.ar    1  UNL1        0.0693
     10  N1        -2.0880    1.3590    1.6230 N.ar    1  UNL1       -0.1753
     11  N2        -2.7470    0.9180    2.6690 N.ar    1  UNL1       -0.2427
     12  C9        -4.0480    0.6140    2.5700 C.ar    1  UNL1        0.2682
     13  O2        -4.6310    0.1940    3.6030 O.2     1  UNL1       -0.2661
     14  C10       -4.7500    0.7510    1.3670 C.ar    1  UNL1        0.0232
     15  C11       -4.0680    1.2130    0.2670 C.ar    1  UNL1       -0.0158
     16  C12       -4.8170    1.3920   -0.9810 C.3     1  UNL1       -0.0255
     17  C13       -6.1840    1.9750   -0.5580 C.3     1  UNL1       -0.0487
     18  C14       -6.8920    0.8290    0.1280 C.3     1  UNL1       -0.0486
     19  C15       -6.1730    0.3780    1.3510 C.3     1  UNL1       -0.0222
     20  C16       -0.4430    0.0560   -1.1130 C.ar    1  UNL1       -0.0461
     21  N3         1.9490   -1.6920   -0.2810 N.am    1  UNL1       -0.2945
     22  C17        2.0000   -0.6690    0.6960 C.3     1  UNL1        0.0308
     23  C18        3.2320   -0.8090    1.6390 C.3     1  UNL1        0.0294
     24  N4         4.4070   -1.0900    0.8450 N.pl3   1  UNL1       -0.3122
     25  C19        5.6520   -0.4740    1.1250 C.ar    1  UNL1        0.1213
     26  C20        6.7520   -0.7590    0.3510 C.ar    1  UNL1       -0.0217
     27  C21        7.9530   -0.1570    0.6310 C.ar    1  UNL1       -0.0571
     28  C22        8.0370    0.7310    1.6920 C.ar    1  UNL1       -0.0435
     29  C23        6.9280    1.0150    2.4670 C.ar    1  UNL1        0.0297
     30  N5         5.7730    0.4080    2.1630 N.ar    1  UNL1       -0.2403
     31  C24        4.3170   -2.0240   -0.2670 C.3     1  UNL1        0.0294
     32  C25        2.9860   -2.7630   -0.0770 C.3     1  UNL1        0.0308
     33 H          -0.3098   -2.1835   -3.5337 H       1  UNL1        0.0625
     34 H          -2.1320   -0.9034   -4.3177 H       1  UNL1        0.0618
     35 H          -2.9649    1.0325   -3.1250 H       1  UNL1        0.0620
     36 H          -2.5654    2.6206   -1.3512 H       1  UNL1        0.0377
     37 H          -1.0804    2.4736   -0.4208 H       1  UNL1        0.0377
     38 H          -2.2829    0.8101    3.5305 H       1  UNL1        0.1921
     39 H          -4.9477    0.4531   -1.4773 H       1  UNL1        0.0314
     40 H          -4.3039    2.0356   -1.6647 H       1  UNL1        0.0314
     41 H          -6.7364    2.3019   -1.4141 H       1  UNL1        0.0268
     42 H          -6.0813    2.8282    0.0795 H       1  UNL1        0.0268
     43 H          -6.9606    0.0078   -0.5545 H       1  UNL1        0.0269
     44 H          -7.8621    1.1705    0.4233 H       1  UNL1        0.0269
     45 H          -6.6476    0.8166    2.2038 H       1  UNL1        0.0315
     46 H          -6.2181   -0.6909    1.3661 H       1  UNL1        0.0315
     47 H           0.0110    0.3329   -0.2285 H       1  UNL1        0.0628
     48 H           1.1087   -0.7130    1.2864 H       1  UNL1        0.0480
     49 H           2.0857    0.2668    0.1842 H       1  UNL1        0.0480
     50 H           3.0659   -1.6100    2.3287 H       1  UNL1        0.0480
     51 H           3.3743    0.1013    2.1831 H       1  UNL1        0.0480
     52 H           6.6749   -1.4219   -0.4361 H       1  UNL1        0.0652
     53 H           8.7856   -0.3634    0.0572 H       1  UNL1        0.0619
     54 H           8.9384    1.1857    1.9060 H       1  UNL1        0.0633
     55 H           6.9881    1.6759    3.2573 H       1  UNL1        0.0830
     56 H           5.1344   -2.7141   -0.2425 H       1  UNL1        0.0480
     57 H           4.3603   -1.5218   -1.2109 H       1  UNL1        0.0480
     58 H           2.8762   -3.5429   -0.8013 H       1  UNL1        0.0480
     59 H           2.9087   -3.2373    0.8790 H       1  UNL1        0.0480
@<TRIPOS>BOND
     1     1     2    2
     2     2     3    1
     3     2    21   am
     4     3     4   ar
     5     3    20   ar
     6     4     5   ar
     7     5     6   ar
     8     6     7   ar
     9     7     8    1
    10     7    20   ar
    11     8     9    1
    12     9    10   ar
    13     9    15   ar
    14    10    11   ar
    15    11    12   ar
    16    12    13    2
    17    12    14   ar
    18    14    15   ar
    19    14    19    1
    20    15    16    1
    21    16    17    1
    22    17    18    1
    23    18    19    1
    24    21    22    1
    25    21    32    1
    26    22    23    1
    27    23    24    1
    28    24    25    1
    29    24    31    1
    30    25    26   ar
    31    25    30   ar
    32    26    27   ar
    33    27    28   ar
    34    28    29   ar
    35    29    30   ar
    36    31    32    1
    37     4    33    1
    38     5    34    1
    39     6    35    1
    40     8    36    1
    41     8    37    1
    42    11    38    1
    43    16    39    1
    44    16    40    1
    45    17    41    1
    46    17    42    1
    47    18    43    1
    48    18    44    1
    49    19    45    1
    50    19    46    1
    51    20    47    1
    52    22    48    1
    53    22    49    1
    54    23    50    1
    55    23    51    1
    56    26    52    1
    57    27    53    1
    58    28    54    1
    59    29    55    1
    60    31    56    1
    61    31    57    1
    62    32    58    1
    63    32    59    1
@<TRIPOS>MOLECULE
../data/bude_mols_rdkit_confs2/molecule_98.pdb
 59 63 0 0 0
SMALL
GASTEIGER

@<TRIPOS>ATOM
      1  O1         0.5470    0.4330    2.7820 O.2     1  UNL1       -0.2700
      2  C1         1.0830    1.2100    1.8700 C.2     1  UNL1        0.2467
      3  C2         0.2090    1.5260    0.7770 C.ar    1  UNL1        0.0372
      4  C3         0.6170    2.0550   -0.4090 C.ar    1  UNL1       -0.0496
      5  C4        -0.2780    2.4050   -1.4160 C.ar    1  UNL1       -0.0608
      6  C5        -1.6160    2.2080   -1.2090 C.ar    1  UNL1       -0.0582
      7  C6        -2.0920    1.6750   -0.0300 C.ar    1  UNL1       -0.0408
      8  C7        -3.5570    1.4850    0.1200 C.3     1  UNL1        0.0168
      9  C8        -4.0120    0.1030    0.0820 C.ar    1  UNL1        0.0693
     10  N1        -4.3060   -0.5090    1.2460 N.ar    1  UNL1       -0.1753
     11  N2        -4.7050   -1.7700    1.3070 N.ar    1  UNL1       -0.2427
     12  C9        -4.8340   -2.5000    0.1850 C.ar    1  UNL1        0.2682
     13  O2        -5.2210   -3.7200    0.2460 O.2     1  UNL1       -0.2661
     14  C10       -4.5460   -1.9140   -1.0160 C.ar    1  UNL1        0.0232
     15  C11       -4.1330   -0.6080   -1.0790 C.ar    1  UNL1       -0.0158
     16  C12       -3.8380    0.0200   -2.4110 C.3     1  UNL1       -0.0255
     17  C13       -4.6510   -0.5300   -3.5200 C.3     1  UNL1       -0.0487
     18  C14       -5.3210   -1.8350   -3.2910 C.3     1  UNL1       -0.0486
     19  C15       -4.6600   -2.6940   -2.2700 C.3     1  UNL1       -0.0222
     20  C16       -1.1860    1.3520    0.9160 C.ar    1  UNL1       -0.0461
     21  N3         2.3810    1.5820    2.1260 N.am    1  UNL1       -0.2945
     22  C17        3.0730    0.9960    3.3240 C.3     1  UNL1        0.0308
     23  C18        4.4610    0.5920    2.9280 C.3     1  UNL1        0.0294
     24  N4         4.5990    0.5620    1.4910 N.pl3   1  UNL1       -0.3122
     25  C19        5.0070   -0.6130    0.8030 C.ar    1  UNL1        0.1213
     26  C20        5.3790   -0.5690   -0.5300 C.ar    1  UNL1       -0.0217
     27  C21        5.7720   -1.7000   -1.2160 C.ar    1  UNL1       -0.0571
     28  C22        5.7870   -2.9110   -0.5260 C.ar    1  UNL1       -0.0435
     29  C23        5.4180   -2.9490    0.7920 C.ar    1  UNL1        0.0297
     30  N5         5.0440   -1.8120    1.4100 N.ar    1  UNL1       -0.2403
     31  C24        4.3130    1.7700    0.6840 C.3     1  UNL1        0.0294
     32  C25        3.2090    2.5350    1.4430 C.3     1  UNL1        0.0308
     33 H           1.6262    2.2019   -0.5673 H       1  UNL1        0.0625
     34 H           0.0620    2.8064   -2.3039 H       1  UNL1        0.0618
     35 H          -2.2843    2.4643   -1.9525 H       1  UNL1        0.0620
     36 H          -4.0420    2.0146   -0.6732 H       1  UNL1        0.0377
     37 H          -3.8047    1.8514    1.0943 H       1  UNL1        0.0377
     38 H          -4.9088   -2.1763    2.1803 H       1  UNL1        0.1921
     39 H          -2.8046   -0.1390   -2.6383 H       1  UNL1        0.0314
     40 H          -4.0821    1.0585   -2.3287 H       1  UNL1        0.0314
     41 H          -4.0056   -0.6441   -4.3658 H       1  UNL1        0.0268
     42 H          -5.4499    0.1701   -3.6484 H       1  UNL1        0.0268
     43 H          -5.3385   -2.3696   -4.2177 H       1  UNL1        0.0269
     44 H          -6.2996   -1.6151   -2.9183 H       1  UNL1        0.0269
     45 H          -5.2477   -3.5716   -2.0990 H       1  UNL1        0.0315
     46 H          -3.6905   -2.9937   -2.6094 H       1  UNL1        0.0315
     47 H          -1.5354    0.9510    1.8004 H       1  UNL1        0.0628
     48 H           2.5329    0.1388    3.6681 H       1  UNL1        0.0480
     49 H           3.1147    1.7198    4.1109 H       1  UNL1        0.0480
     50 H           4.6677   -0.3819    3.3201 H       1  UNL1        0.0480
     51 H           5.1511    1.3082    3.3227 H       1  UNL1        0.0480
     52 H           5.3618    0.3363   -1.0251 H       1  UNL1        0.0652
     53 H           6.0464   -1.6507   -2.2096 H       1  UNL1        0.0619
     54 H           6.0756   -3.7770   -1.0074 H       1  UNL1        0.0633
     55 H           5.4263   -3.8425    1.3084 H       1  UNL1        0.0830
     56 H           3.9707    1.4934   -0.2913 H       1  UNL1        0.0480
     57 H           5.1884    2.3712    0.5536 H       1  UNL1        0.0480
     58 H           3.6540    3.2006    2.1528 H       1  UNL1        0.0480
     59 H           2.6202    3.1059    0.7558 H       1  UNL1        0.0480
@<TRIPOS>BOND
     1     1     2    2
     2     2     3    1
     3     2    21   am
     4     3     4   ar
     5     3    20   ar
     6     4     5   ar
     7     5     6   ar
     8     6     7   ar
     9     7     8    1
    10     7    20   ar
    11     8     9    1
    12     9    10   ar
    13     9    15   ar
    14    10    11   ar
    15    11    12   ar
    16    12    13    2
    17    12    14   ar
    18    14    15   ar
    19    14    19    1
    20    15    16    1
    21    16    17    1
    22    17    18    1
    23    18    19    1
    24    21    22    1
    25    21    32    1
    26    22    23    1
    27    23    24    1
    28    24    25    1
    29    24    31    1
    30    25    26   ar
    31    25    30   ar
    32    26    27   ar
    33    27    28   ar
    34    28    29   ar
    35    29    30   ar
    36    31    32    1
    37     4    33    1
    38     5    34    1
    39     6    35    1
    40     8    36    1
    41     8    37    1
    42    11    38    1
    43    16    39    1
    44    16    40    1
    45    17    41    1
    46    17    42    1
    47    18    43    1
    48    18    44    1
    49    19    45    1
    50    19    46    1
    51    20    47    1
    52    22    48    1
    53    22    49    1
    54    23    50    1
    55    23    51    1
    56    26    52    1
    57    27    53    1
    58    28    54    1
    59    29    55    1
    60    31    56    1
    61    31    57    1
    62    32    58    1
    63    32    59    1
@<TRIPOS>MOLECULE
../data/bude_mols_rdkit_confs2/molecule_98.pdb
 59 63 0 0 0
SMALL
GASTEIGER

@<TRIPOS>ATOM
      1  O1         0.8900    0.7070   -1.2730 O.2     1  UNL1       -0.2700
      2  C1         1.3150   -0.0570   -0.2800 C.2     1  UNL1        0.2467
      3  C2         0.2870   -0.3010    0.7070 C.ar    1  UNL1        0.0372
      4  C3         0.4810   -1.0860    1.8010 C.ar    1  UNL1       -0.0496
      5  C4        -0.5630   -1.2640    2.7130 C.ar    1  UNL1       -0.0608
      6  C5        -1.7670   -0.6570    2.5090 C.ar    1  UNL1       -0.0582
      7  C6        -2.0060    0.1460    1.4150 C.ar    1  UNL1       -0.0408
      8  C7        -3.3210    0.8000    1.2060 C.3     1  UNL1        0.0168
      9  C8        -4.1930   -0.0960    0.4180 C.ar    1  UNL1        0.0693
     10  N1        -3.7830   -1.3280   -0.0160 N.ar    1  UNL1       -0.1753
     11  N2        -4.5530   -2.1270   -0.7160 N.ar    1  UNL1       -0.2427
     12  C9        -5.7940   -1.7810   -1.0480 C.ar    1  UNL1        0.2682
     13  O2        -6.5160   -2.5620   -1.7190 O.2     1  UNL1       -0.2661
     14  C10       -6.2690   -0.5280   -0.6290 C.ar    1  UNL1        0.0232
     15  C11       -5.4630    0.3120    0.1050 C.ar    1  UNL1       -0.0158
     16  C12       -5.9690    1.6270    0.5350 C.3     1  UNL1       -0.0255
     17  C13       -6.6500    2.2250   -0.7040 C.3     1  UNL1       -0.0487
     18  C14       -7.8200    1.3820   -1.1030 C.3     1  UNL1       -0.0486
     19  C15       -7.6440   -0.0880   -0.9630 C.3     1  UNL1       -0.0222
     20  C16       -0.9730    0.3110    0.5290 C.ar    1  UNL1       -0.0461
     21  N3         2.6350   -0.4770   -0.3580 N.am    1  UNL1       -0.2945
     22  C17        3.3840   -0.0080   -1.5660 C.3     1  UNL1        0.0308
     23  C18        4.5760    0.7560   -0.9710 C.3     1  UNL1        0.0294
     24  N4         5.4120   -0.2600   -0.3910 N.pl3   1  UNL1       -0.3122
     25  C19        6.7920   -0.0330   -0.2310 C.ar    1  UNL1        0.1213
     26  C20        7.4160    1.1450   -0.5850 C.ar    1  UNL1       -0.0217
     27  C21        8.7830    1.3530   -0.4200 C.ar    1  UNL1       -0.0571
     28  C22        9.5540    0.3640    0.1100 C.ar    1  UNL1       -0.0435
     29  C23        8.9250   -0.8150    0.4640 C.ar    1  UNL1        0.0297
     30  N5         7.6120   -0.9880    0.2950 N.ar    1  UNL1       -0.2403
     31  C24        4.8260   -1.4980    0.0220 C.3     1  UNL1        0.0294
     32  C25        3.3800   -1.2720    0.5290 C.3     1  UNL1        0.0308
     33 H           1.3915   -1.5463    1.9562 H       1  UNL1        0.0625
     34 H          -0.4220   -1.8579    3.5451 H       1  UNL1        0.0618
     35 H          -2.5232   -0.8037    3.1958 H       1  UNL1        0.0620
     36 H          -3.1826    1.7198    0.6771 H       1  UNL1        0.0377
     37 H          -3.7760    1.0004    2.1535 H       1  UNL1        0.0377
     38 H          -4.2046   -3.0023   -1.0020 H       1  UNL1        0.1921
     39 H          -5.1623    2.2517    0.8573 H       1  UNL1        0.0314
     40 H          -6.6451    1.5435    1.3601 H       1  UNL1        0.0314
     41 H          -5.9482    2.2615   -1.5109 H       1  UNL1        0.0268
     42 H          -6.9913    3.2127   -0.4743 H       1  UNL1        0.0268
     43 H          -8.0373    1.5891   -2.1300 H       1  UNL1        0.0269
     44 H          -8.6070    1.6434   -0.4268 H       1  UNL1        0.0269
     45 H          -8.2982   -0.4277   -0.1874 H       1  UNL1        0.0315
     46 H          -7.8660   -0.5071   -1.9221 H       1  UNL1        0.0315
     47 H          -1.1221    0.9060   -0.3009 H       1  UNL1        0.0628
     48 H           2.7770    0.6369   -2.1664 H       1  UNL1        0.0480
     49 H           3.6807   -0.8088   -2.2106 H       1  UNL1        0.0480
     50 H           4.2459    1.4452   -0.2220 H       1  UNL1        0.0480
     51 H           5.0943    1.3327   -1.7083 H       1  UNL1        0.0480
     52 H           6.8458    1.9043   -0.9892 H       1  UNL1        0.0652
     53 H           9.2089    2.2511   -0.6977 H       1  UNL1        0.0619
     54 H          10.5697    0.4897    0.2425 H       1  UNL1        0.0633
     55 H           9.4849   -1.5813    0.8694 H       1  UNL1        0.0830
     56 H           5.4136   -1.9199    0.8105 H       1  UNL1        0.0480
     57 H           4.7988   -2.1640   -0.8150 H       1  UNL1        0.0480
     58 H           2.8970   -2.2211    0.6328 H       1  UNL1        0.0480
     59 H           3.4325   -0.7627    1.4686 H       1  UNL1        0.0480
@<TRIPOS>BOND
     1     1     2    2
     2     2     3    1
     3     2    21   am
     4     3     4   ar
     5     3    20   ar
     6     4     5   ar
     7     5     6   ar
     8     6     7   ar
     9     7     8    1
    10     7    20   ar
    11     8     9    1
    12     9    10   ar
    13     9    15   ar
    14    10    11   ar
    15    11    12   ar
    16    12    13    2
    17    12    14   ar
    18    14    15   ar
    19    14    19    1
    20    15    16    1
    21    16    17    1
    22    17    18    1
    23    18    19    1
    24    21    22    1
    25    21    32    1
    26    22    23    1
    27    23    24    1
    28    24    25    1
    29    24    31    1
    30    25    26   ar
    31    25    30   ar
    32    26    27   ar
    33    27    28   ar
    34    28    29   ar
    35    29    30   ar
    36    31    32    1
    37     4    33    1
    38     5    34    1
    39     6    35    1
    40     8    36    1
    41     8    37    1
    42    11    38    1
    43    16    39    1
    44    16    40    1
    45    17    41    1
    46    17    42    1
    47    18    43    1
    48    18    44    1
    49    19    45    1
    50    19    46    1
    51    20    47    1
    52    22    48    1
    53    22    49    1
    54    23    50    1
    55    23    51    1
    56    26    52    1
    57    27    53    1
    58    28    54    1
    59    29    55    1
    60    31    56    1
    61    31    57    1
    62    32    58    1
    63    32    59    1
@<TRIPOS>MOLECULE
../data/bude_mols_rdkit_confs2/molecule_98.pdb
 59 63 0 0 0
SMALL
GASTEIGER

@<TRIPOS>ATOM
      1  O1         1.0270   -1.4610   -3.6640 O.2     1  UNL1       -0.2700
      2  C1         0.9210   -1.4560   -2.3510 C.2     1  UNL1        0.2467
      3  C2        -0.3200   -1.9790   -1.8460 C.ar    1  UNL1        0.0372
      4  C3        -1.1960   -2.6290   -2.7540 C.ar    1  UNL1       -0.0496
      5  C4        -2.3970   -3.1080   -2.3110 C.ar    1  UNL1       -0.0608
      6  C5        -2.8100   -2.9920   -1.0100 C.ar    1  UNL1       -0.0582
      7  C6        -1.9870   -2.3690   -0.1090 C.ar    1  UNL1       -0.0408
      8  C7        -2.3570   -2.2410    1.3000 C.3     1  UNL1        0.0168
      9  C8        -3.5690   -1.4560    1.5670 C.ar    1  UNL1        0.0693
     10  N1        -4.7520   -2.1090    1.7730 N.ar    1  UNL1       -0.1753
     11  N2        -5.8940   -1.4810    1.9830 N.ar    1  UNL1       -0.2427
     12  C9        -5.9270   -0.1370    2.0020 C.ar    1  UNL1        0.2682
     13  O2        -7.0090    0.4780    2.2000 O.2     1  UNL1       -0.2661
     14  C10       -4.8010    0.6020    1.8080 C.ar    1  UNL1        0.0232
     15  C11       -3.6010   -0.1020    1.5880 C.ar    1  UNL1       -0.0158
     16  C12       -2.4170    0.7430    1.4180 C.3     1  UNL1       -0.0255
     17  C13       -2.7050    1.7310    0.3100 C.3     1  UNL1       -0.0487
     18  C14       -3.9810    2.4970    0.5420 C.3     1  UNL1       -0.0486
     19  C15       -4.7040    2.0670    1.7960 C.3     1  UNL1       -0.0222
     20  C16       -0.7710   -1.8820   -0.5540 C.ar    1  UNL1       -0.0461
     21  N3         2.0410   -0.9420   -1.7030 N.am    1  UNL1       -0.2945
     22  C17        3.1610   -0.4280   -2.5660 C.3     1  UNL1        0.0308
     23  C18        3.7300    0.8170   -1.8770 C.3     1  UNL1        0.0294
     24  N4         4.1610    0.4790   -0.5390 N.pl3   1  UNL1       -0.3122
     25  C19        4.9570    1.3840    0.1970 C.ar    1  UNL1        0.1213
     26  C20        5.5380    1.0840    1.4090 C.ar    1  UNL1       -0.0217
     27  C21        6.2980    1.9980    2.0990 C.ar    1  UNL1       -0.0571
     28  C22        6.4980    3.2530    1.5830 C.ar    1  UNL1       -0.0435
     29  C23        5.9150    3.5460    0.3710 C.ar    1  UNL1        0.0297
     30  N5         5.1820    2.6440   -0.2790 N.ar    1  UNL1       -0.2403
     31  C24        3.7550   -0.7770   -0.0030 C.3     1  UNL1        0.0294
     32  C25        2.2220   -0.9070   -0.2860 C.3     1  UNL1        0.0308
     33 H          -0.9273   -2.7395   -3.7443 H       1  UNL1        0.0625
     34 H          -3.0201   -3.5777   -2.9863 H       1  UNL1        0.0618
     35 H          -3.7246   -3.3671   -0.7139 H       1  UNL1        0.0620
     36 H          -1.5424   -1.7745    1.8136 H       1  UNL1        0.0377
     37 H          -2.5694   -3.2334    1.6391 H       1  UNL1        0.0377
     38 H          -6.7207   -1.9962    2.1256 H       1  UNL1        0.1921
     39 H          -1.5739    0.1386    1.1558 H       1  UNL1        0.0314
     40 H          -2.1941    1.2591    2.3284 H       1  UNL1        0.0314
     41 H          -2.7876    1.1972   -0.6137 H       1  UNL1        0.0268
     42 H          -1.9008    2.4363    0.2842 H       1  UNL1        0.0268
     43 H          -4.6288    2.3431   -0.2956 H       1  UNL1        0.0269
     44 H          -3.7201    3.5281    0.6590 H       1  UNL1        0.0269
     45 H          -4.1604    2.3984    2.6560 H       1  UNL1        0.0315
     46 H          -5.6839    2.4962    1.8157 H       1  UNL1        0.0315
     47 H          -0.1608   -1.4132    0.1337 H       1  UNL1        0.0628
     48 H           2.7885   -0.1721   -3.5359 H       1  UNL1        0.0480
     49 H           3.9186   -1.1736   -2.6887 H       1  UNL1        0.0480
     50 H           2.9741    1.5727   -1.8270 H       1  UNL1        0.0480
     51 H           4.5657    1.1814   -2.4372 H       1  UNL1        0.0480
     52 H           5.3985    0.1440    1.8115 H       1  UNL1        0.0652
     53 H           6.7183    1.7399    3.0055 H       1  UNL1        0.0619
     54 H           7.0656    3.9530    2.0858 H       1  UNL1        0.0633
     55 H           6.0485    4.4824   -0.0418 H       1  UNL1        0.0830
     56 H           3.9401   -0.8064    1.0505 H       1  UNL1        0.0480
     57 H           4.3002   -1.5822   -0.4494 H       1  UNL1        0.0480
     58 H           1.8462   -1.8084    0.1513 H       1  UNL1        0.0480
     59 H           1.6921   -0.0799    0.1382 H       1  UNL1        0.0480
@<TRIPOS>BOND
     1     1     2    2
     2     2     3    1
     3     2    21   am
     4     3     4   ar
     5     3    20   ar
     6     4     5   ar
     7     5     6   ar
     8     6     7   ar
     9     7     8    1
    10     7    20   ar
    11     8     9    1
    12     9    10   ar
    13     9    15   ar
    14    10    11   ar
    15    11    12   ar
    16    12    13    2
    17    12    14   ar
    18    14    15   ar
    19    14    19    1
    20    15    16    1
    21    16    17    1
    22    17    18    1
    23    18    19    1
    24    21    22    1
    25    21    32    1
    26    22    23    1
    27    23    24    1
    28    24    25    1
    29    24    31    1
    30    25    26   ar
    31    25    30   ar
    32    26    27   ar
    33    27    28   ar
    34    28    29   ar
    35    29    30   ar
    36    31    32    1
    37     4    33    1
    38     5    34    1
    39     6    35    1
    40     8    36    1
    41     8    37    1
    42    11    38    1
    43    16    39    1
    44    16    40    1
    45    17    41    1
    46    17    42    1
    47    18    43    1
    48    18    44    1
    49    19    45    1
    50    19    46    1
    51    20    47    1
    52    22    48    1
    53    22    49    1
    54    23    50    1
    55    23    51    1
    56    26    52    1
    57    27    53    1
    58    28    54    1
    59    29    55    1
    60    31    56    1
    61    31    57    1
    62    32    58    1
    63    32    59    1
@<TRIPOS>MOLECULE
../data/bude_mols_rdkit_confs2/molecule_98.pdb
 59 63 0 0 0
SMALL
GASTEIGER

@<TRIPOS>ATOM
      1  O1         0.9230   -1.8430    1.2530 O.2     1  UNL1       -0.2700
      2  C1         1.1660   -0.8840    0.3830 C.2     1  UNL1        0.2467
      3  C2         0.1210    0.0910    0.1820 C.ar    1  UNL1        0.0372
      4  C3         0.0650    1.0990   -0.7330 C.ar    1  UNL1       -0.0496
      5  C4        -0.9740    2.0200   -0.8300 C.ar    1  UNL1       -0.0608
      6  C5        -2.0240    1.9180    0.0540 C.ar    1  UNL1       -0.0582
      7  C6        -2.0420    0.9360    0.9980 C.ar    1  UNL1       -0.0408
      8  C7        -3.1620    0.7950    1.9960 C.3     1  UNL1        0.0168
      9  C8        -4.1490   -0.1570    1.4880 C.ar    1  UNL1        0.0693
     10  N1        -3.9370   -1.4850    1.7610 N.ar    1  UNL1       -0.1753
     11  N2        -4.7250   -2.4280    1.2930 N.ar    1  UNL1       -0.2427
     12  C9        -5.7770   -2.0920    0.5200 C.ar    1  UNL1        0.2682
     13  O2        -6.5430   -2.9860    0.0610 O.2     1  UNL1       -0.2661
     14  C10       -6.0450   -0.7950    0.2120 C.ar    1  UNL1        0.0232
     15  C11       -5.2080    0.2050    0.7120 C.ar    1  UNL1       -0.0158
     16  C12       -5.6020    1.6090    0.3970 C.3     1  UNL1       -0.0255
     17  C13       -5.7320    1.6820   -1.1050 C.3     1  UNL1       -0.0487
     18  C14       -6.7720    0.7260   -1.6280 C.3     1  UNL1       -0.0486
     19  C15       -7.1880   -0.3320   -0.6350 C.3     1  UNL1       -0.0222
     20  C16       -0.9900    0.0460    1.0560 C.ar    1  UNL1       -0.0461
     21  N3         2.4210   -0.9430   -0.2340 N.am    1  UNL1       -0.2945
     22  C17        3.3110   -2.0920    0.1300 C.3     1  UNL1        0.0308
     23  C18        4.5160   -1.4450    0.8160 C.3     1  UNL1        0.0294
     24  N4         5.1750   -0.6740   -0.2510 N.pl3   1  UNL1       -0.3122
     25  C19        6.4950   -0.2610   -0.0570 C.ar    1  UNL1        0.1213
     26  C20        7.2350   -0.5620    1.0800 C.ar    1  UNL1       -0.0217
     27  C21        8.5330   -0.1270    1.2140 C.ar    1  UNL1       -0.0571
     28  C22        9.1130    0.6180    0.2110 C.ar    1  UNL1       -0.0435
     29  C23        8.3760    0.9180   -0.9190 C.ar    1  UNL1        0.0297
     30  N5         7.1130    0.4660   -0.9970 N.ar    1  UNL1       -0.2403
     31  C24        4.4750   -0.3590   -1.4620 C.3     1  UNL1        0.0294
     32  C25        2.9980   -0.0380   -1.1580 C.3     1  UNL1        0.0308
     33 H           0.8473    1.1856   -1.4005 H       1  UNL1        0.0625
     34 H          -0.9575    2.7616   -1.5475 H       1  UNL1        0.0618
     35 H          -2.8044    2.5912    0.0012 H       1  UNL1        0.0620
     36 H          -3.6281    1.7464    2.1461 H       1  UNL1        0.0377
     37 H          -2.7692    0.4402    2.9259 H       1  UNL1        0.0377
     38 H          -4.5479   -3.3728    1.5057 H       1  UNL1        0.1921
     39 H          -4.8510    2.2906    0.7380 H       1  UNL1        0.0314
     40 H          -6.5181    1.8753    0.8814 H       1  UNL1        0.0314
     41 H          -4.7875    1.4401   -1.5457 H       1  UNL1        0.0268
     42 H          -6.0361    2.6750   -1.3628 H       1  UNL1        0.0268
     43 H          -6.3753    0.2377   -2.4935 H       1  UNL1        0.0269
     44 H          -7.6442    1.3062   -1.8458 H       1  UNL1        0.0269
     45 H          -7.9466    0.0728    0.0018 H       1  UNL1        0.0315
     46 H          -7.5500   -1.1747   -1.1862 H       1  UNL1        0.0315
     47 H          -1.0149   -0.6928    1.7761 H       1  UNL1        0.0628
     48 H           3.6164   -2.6254   -0.7459 H       1  UNL1        0.0480
     49 H           2.8186   -2.8027    0.7604 H       1  UNL1        0.0480
     50 H           5.1756   -2.1918    1.2060 H       1  UNL1        0.0480
     51 H           4.2321   -0.8322    1.6459 H       1  UNL1        0.0480
     52 H           6.8048   -1.1196    1.8343 H       1  UNL1        0.0652
     53 H           9.0710   -0.3582    2.0638 H       1  UNL1        0.0619
     54 H          10.0865    0.9483    0.3023 H       1  UNL1        0.0633
     55 H           8.7858    1.4758   -1.6845 H       1  UNL1        0.0830
     56 H           4.5248   -1.1962   -2.1265 H       1  UNL1        0.0480
     57 H           4.9310    0.4963   -1.9153 H       1  UNL1        0.0480
     58 H           2.9391    0.9501   -0.7517 H       1  UNL1        0.0480
     59 H           2.4536   -0.1218   -2.0754 H       1  UNL1        0.0480
@<TRIPOS>BOND
     1     1     2    2
     2     2     3    1
     3     2    21   am
     4     3     4   ar
     5     3    20   ar
     6     4     5   ar
     7     5     6   ar
     8     6     7   ar
     9     7     8    1
    10     7    20   ar
    11     8     9    1
    12     9    10   ar
    13     9    15   ar
    14    10    11   ar
    15    11    12   ar
    16    12    13    2
    17    12    14   ar
    18    14    15   ar
    19    14    19    1
    20    15    16    1
    21    16    17    1
    22    17    18    1
    23    18    19    1
    24    21    22    1
    25    21    32    1
    26    22    23    1
    27    23    24    1
    28    24    25    1
    29    24    31    1
    30    25    26   ar
    31    25    30   ar
    32    26    27   ar
    33    27    28   ar
    34    28    29   ar
    35    29    30   ar
    36    31    32    1
    37     4    33    1
    38     5    34    1
    39     6    35    1
    40     8    36    1
    41     8    37    1
    42    11    38    1
    43    16    39    1
    44    16    40    1
    45    17    41    1
    46    17    42    1
    47    18    43    1
    48    18    44    1
    49    19    45    1
    50    19    46    1
    51    20    47    1
    52    22    48    1
    53    22    49    1
    54    23    50    1
    55    23    51    1
    56    26    52    1
    57    27    53    1
    58    28    54    1
    59    29    55    1
    60    31    56    1
    61    31    57    1
    62    32    58    1
    63    32    59    1
@<TRIPOS>MOLECULE
../data/bude_mols_rdkit_confs2/molecule_98.pdb
 59 63 0 0 0
SMALL
GASTEIGER

@<TRIPOS>ATOM
      1  O1         0.2270    1.1890    1.4980 O.2     1  UNL1       -0.2700
      2  C1         0.8690    0.5660    0.5340 C.2     1  UNL1        0.2467
      3  C2         0.1400    0.5750   -0.7130 C.ar    1  UNL1        0.0372
      4  C3         0.6390    0.0680   -1.8880 C.ar    1  UNL1       -0.0496
      5  C4        -0.1300    0.0890   -3.0650 C.ar    1  UNL1       -0.0608
      6  C5        -1.3820    0.6130   -3.0520 C.ar    1  UNL1       -0.0582
      7  C6        -1.9430    1.1460   -1.8810 C.ar    1  UNL1       -0.0408
      8  C7        -3.3100    1.7100   -1.9580 C.3     1  UNL1        0.0168
      9  C8        -4.3720    0.7240   -1.9530 C.ar    1  UNL1        0.0693
     10  N1        -4.9330    0.3160   -3.1310 N.ar    1  UNL1       -0.1753
     11  N2        -5.8720   -0.6090   -3.2020 N.ar    1  UNL1       -0.2427
     12  C9        -6.3170   -1.1940   -2.0750 C.ar    1  UNL1        0.2682
     13  O2        -7.2130   -2.0830   -2.1000 O.2     1  UNL1       -0.2661
     14  C10       -5.8180   -0.8540   -0.8410 C.ar    1  UNL1        0.0232
     15  C11       -4.8220    0.1350   -0.8090 C.ar    1  UNL1       -0.0158
     16  C12       -4.3020    0.5390    0.4870 C.3     1  UNL1       -0.0255
     17  C13       -5.3370    0.5390    1.5680 C.3     1  UNL1       -0.0487
     18  C14       -6.4920   -0.3740    1.4020 C.3     1  UNL1       -0.0486
     19  C15       -6.2890   -1.4930    0.4120 C.3     1  UNL1       -0.0222
     20  C16       -1.1580    1.1010   -0.7740 C.ar    1  UNL1       -0.0461
     21  N3         2.1010    0.0270    0.8890 N.am    1  UNL1       -0.2945
     22  C17        2.9840   -0.7150    0.0350 C.3     1  UNL1        0.0308
     23  C18        4.1440   -1.3350    0.8750 C.3     1  UNL1        0.0294
     24  N4         4.8240   -0.2280    1.4740 N.pl3   1  UNL1       -0.3122
     25  C19        6.2020   -0.0180    1.3000 C.ar    1  UNL1        0.1213
     26  C20        7.0320   -0.8310    0.5790 C.ar    1  UNL1       -0.0217
     27  C21        8.3950   -0.5970    0.4270 C.ar    1  UNL1       -0.0571
     28  C22        8.9280    0.5050    1.0320 C.ar    1  UNL1       -0.0435
     29  C23        8.0860    1.3170    1.7560 C.ar    1  UNL1        0.0297
     30  N5         6.7780    1.0710    1.8880 N.ar    1  UNL1       -0.2403
     31  C24        3.9980    0.6680    2.2810 C.3     1  UNL1        0.0294
     32  C25        2.5650    0.2400    2.2830 C.3     1  UNL1        0.0308
     33 H           1.5897   -0.3331   -1.9072 H       1  UNL1        0.0625
     34 H           0.2584   -0.2949   -3.9407 H       1  UNL1        0.0618
     35 H          -1.9345    0.6197   -3.9236 H       1  UNL1        0.0620
     36 H          -3.3862    2.2776   -2.8619 H       1  UNL1        0.0377
     37 H          -3.4430    2.3025   -1.0770 H       1  UNL1        0.0377
     38 H          -6.2448   -0.8695   -4.0751 H       1  UNL1        0.1921
     39 H          -3.9030    1.5279    0.3992 H       1  UNL1        0.0314
     40 H          -3.5549   -0.1749    0.7645 H       1  UNL1        0.0314
     41 H          -5.7223    1.5343    1.6443 H       1  UNL1        0.0268
     42 H          -4.8264    0.1812    2.4376 H       1  UNL1        0.0268
     43 H          -7.3295    0.2074    1.0772 H       1  UNL1        0.0269
     44 H          -6.6394   -0.8420    2.3528 H       1  UNL1        0.0269
     45 H          -5.5556   -2.1820    0.7758 H       1  UNL1        0.0315
     46 H          -7.1928   -2.0436    0.2540 H       1  UNL1        0.0315
     47 H          -1.5511    1.4877    0.0983 H       1  UNL1        0.0628
     48 H           3.3936   -0.0603   -0.7056 H       1  UNL1        0.0480
     49 H           2.4349   -1.5014   -0.4392 H       1  UNL1        0.0480
     50 H           4.8101   -1.8840    0.2427 H       1  UNL1        0.0480
     51 H           3.7761   -2.0177    1.6122 H       1  UNL1        0.0480
     52 H           6.6256   -1.6629    0.1231 H       1  UNL1        0.0652
     53 H           8.9856   -1.2372   -0.1265 H       1  UNL1        0.0619
     54 H           9.9334    0.7224    0.9485 H       1  UNL1        0.0633
     55 H           8.4805    2.1517    2.2170 H       1  UNL1        0.0830
     56 H           4.0646    1.6577    1.8799 H       1  UNL1        0.0480
     57 H           4.3579    0.6400    3.2882 H       1  UNL1        0.0480
     58 H           2.4678   -0.6727    2.8329 H       1  UNL1        0.0480
     59 H           1.9696    1.0023    2.7406 H       1  UNL1        0.0480
@<TRIPOS>BOND
     1     1     2    2
     2     2     3    1
     3     2    21   am
     4     3     4   ar
     5     3    20   ar
     6     4     5   ar
     7     5     6   ar
     8     6     7   ar
     9     7     8    1
    10     7    20   ar
    11     8     9    1
    12     9    10   ar
    13     9    15   ar
    14    10    11   ar
    15    11    12   ar
    16    12    13    2
    17    12    14   ar
    18    14    15   ar
    19    14    19    1
    20    15    16    1
    21    16    17    1
    22    17    18    1
    23    18    19    1
    24    21    22    1
    25    21    32    1
    26    22    23    1
    27    23    24    1
    28    24    25    1
    29    24    31    1
    30    25    26   ar
    31    25    30   ar
    32    26    27   ar
    33    27    28   ar
    34    28    29   ar
    35    29    30   ar
    36    31    32    1
    37     4    33    1
    38     5    34    1
    39     6    35    1
    40     8    36    1
    41     8    37    1
    42    11    38    1
    43    16    39    1
    44    16    40    1
    45    17    41    1
    46    17    42    1
    47    18    43    1
    48    18    44    1
    49    19    45    1
    50    19    46    1
    51    20    47    1
    52    22    48    1
    53    22    49    1
    54    23    50    1
    55    23    51    1
    56    26    52    1
    57    27    53    1
    58    28    54    1
    59    29    55    1
    60    31    56    1
    61    31    57    1
    62    32    58    1
    63    32    59    1
@<TRIPOS>MOLECULE
../data/bude_mols_rdkit_confs2/molecule_98.pdb
 59 63 0 0 0
SMALL
GASTEIGER

@<TRIPOS>ATOM
      1  O1        -0.8730   -1.8370    1.9070 O.2     1  UNL1       -0.2700
      2  C1        -1.0500   -1.7120    0.6040 C.2     1  UNL1        0.2467
      3  C2         0.1500   -1.7900   -0.2020 C.ar    1  UNL1        0.0372
      4  C3         0.1880   -1.6900   -1.5640 C.ar    1  UNL1       -0.0496
      5  C4         1.3700   -1.7680   -2.3110 C.ar    1  UNL1       -0.0608
      6  C5         2.5390   -1.9550   -1.6140 C.ar    1  UNL1       -0.0582
      7  C6         2.5570   -2.0610   -0.2490 C.ar    1  UNL1       -0.0408
      8  C7         3.8670   -2.2500    0.4770 C.3     1  UNL1        0.0168
      9  C8         4.1880   -1.0220    1.1530 C.ar    1  UNL1        0.0693
     10  N1         3.8280   -0.9420    2.4740 N.ar    1  UNL1       -0.1753
     11  N2         4.0060    0.1040    3.2270 N.ar    1  UNL1       -0.2427
     12  C9         4.5790    1.2030    2.7110 C.ar    1  UNL1        0.2682
     13  O2         4.7420    2.2000    3.4500 O.2     1  UNL1       -0.2661
     14  C10        4.9630    1.1820    1.3850 C.ar    1  UNL1        0.0232
     15  C11        4.7620    0.0450    0.5990 C.ar    1  UNL1       -0.0158
     16  C12        5.2330    0.1210   -0.7560 C.3     1  UNL1       -0.0255
     17  C13        4.5750    1.3690   -1.3750 C.3     1  UNL1       -0.0487
     18  C14        5.0350    2.6070   -0.6680 C.3     1  UNL1       -0.0486
     19  C15        5.5970    2.3460    0.7200 C.3     1  UNL1       -0.0222
     20  C16        1.3840   -1.9800    0.4500 C.ar    1  UNL1       -0.0461
     21  N3        -2.3730   -1.5250    0.2490 N.am    1  UNL1       -0.2945
     22  C17       -3.3740   -1.4930    1.3490 C.3     1  UNL1        0.0308
     23  C18       -4.1250   -0.1590    1.2100 C.3     1  UNL1        0.0294
     24  N4        -4.7910   -0.1280   -0.0860 N.pl3   1  UNL1       -0.3122
     25  C19       -5.7030    0.9060   -0.3510 C.ar    1  UNL1        0.1213
     26  C20       -6.4290    0.9980   -1.5240 C.ar    1  UNL1       -0.0217
     27  C21       -7.3200    2.0230   -1.7690 C.ar    1  UNL1       -0.0571
     28  C22       -7.4810    2.9860   -0.7970 C.ar    1  UNL1       -0.0435
     29  C23       -6.7610    2.9030    0.3770 C.ar    1  UNL1        0.0297
     30  N5        -5.9160    1.8910    0.5580 N.ar    1  UNL1       -0.2403
     31  C24       -4.4600   -1.1690   -1.0140 C.3     1  UNL1        0.0294
     32  C25       -2.9140   -1.3550   -1.0610 C.3     1  UNL1        0.0308
     33 H          -0.7010   -1.5496   -2.0689 H       1  UNL1        0.0625
     34 H           1.3632   -1.6885   -3.3399 H       1  UNL1        0.0618
     35 H           3.4284   -2.0173   -2.1337 H       1  UNL1        0.0620
     36 H           4.6385   -2.4895   -0.2246 H       1  UNL1        0.0377
     37 H           3.7860   -3.0500    1.1830 H       1  UNL1        0.0377
     38 H           3.7222    0.0897    4.1696 H       1  UNL1        0.1921
     39 H           4.9458   -0.7560   -1.2975 H       1  UNL1        0.0314
     40 H           6.3004    0.1862   -0.7929 H       1  UNL1        0.0314
     41 H           3.5118    1.2872   -1.2870 H       1  UNL1        0.0268
     42 H           4.8548    1.4337   -2.4057 H       1  UNL1        0.0268
     43 H           4.2020    3.2722   -0.5754 H       1  UNL1        0.0269
     44 H           5.8281    3.0241   -1.2527 H       1  UNL1        0.0269
     45 H           6.6474    2.1611    0.6347 H       1  UNL1        0.0315
     46 H           5.3943    3.2097    1.3182 H       1  UNL1        0.0315
     47 H           1.4036   -2.0599    1.4787 H       1  UNL1        0.0628
     48 H          -2.8831   -1.5447    2.2983 H       1  UNL1        0.0480
     49 H          -4.0444   -2.3248    1.2892 H       1  UNL1        0.0480
     50 H          -3.4314    0.6529    1.2774 H       1  UNL1        0.0480
     51 H          -4.8484   -0.0656    1.9929 H       1  UNL1        0.0480
     52 H          -6.2995    0.2712   -2.2451 H       1  UNL1        0.0652
     53 H          -7.8497    2.0668   -2.6536 H       1  UNL1        0.0619
     54 H          -8.1384    3.7673   -0.9466 H       1  UNL1        0.0633
     55 H          -6.8769    3.6206    1.1096 H       1  UNL1        0.0830
     56 H          -4.8167   -0.9048   -1.9876 H       1  UNL1        0.0480
     57 H          -4.9186   -2.0835   -0.7006 H       1  UNL1        0.0480
     58 H          -2.6845   -2.2197   -1.6480 H       1  UNL1        0.0480
     59 H          -2.4809   -0.4779   -1.4945 H       1  UNL1        0.0480
@<TRIPOS>BOND
     1     1     2    2
     2     2     3    1
     3     2    21   am
     4     3     4   ar
     5     3    20   ar
     6     4     5   ar
     7     5     6   ar
     8     6     7   ar
     9     7     8    1
    10     7    20   ar
    11     8     9    1
    12     9    10   ar
    13     9    15   ar
    14    10    11   ar
    15    11    12   ar
    16    12    13    2
    17    12    14   ar
    18    14    15   ar
    19    14    19    1
    20    15    16    1
    21    16    17    1
    22    17    18    1
    23    18    19    1
    24    21    22    1
    25    21    32    1
    26    22    23    1
    27    23    24    1
    28    24    25    1
    29    24    31    1
    30    25    26   ar
    31    25    30   ar
    32    26    27   ar
    33    27    28   ar
    34    28    29   ar
    35    29    30   ar
    36    31    32    1
    37     4    33    1
    38     5    34    1
    39     6    35    1
    40     8    36    1
    41     8    37    1
    42    11    38    1
    43    16    39    1
    44    16    40    1
    45    17    41    1
    46    17    42    1
    47    18    43    1
    48    18    44    1
    49    19    45    1
    50    19    46    1
    51    20    47    1
    52    22    48    1
    53    22    49    1
    54    23    50    1
    55    23    51    1
    56    26    52    1
    57    27    53    1
    58    28    54    1
    59    29    55    1
    60    31    56    1
    61    31    57    1
    62    32    58    1
    63    32    59    1
@<TRIPOS>MOLECULE
../data/bude_mols_rdkit_confs2/molecule_98.pdb
 59 63 0 0 0
SMALL
GASTEIGER

@<TRIPOS>ATOM
      1  O1        -1.0450    0.6890    1.7800 O.2     1  UNL1       -0.2700
      2  C1        -1.1890   -0.0400    0.7040 C.2     1  UNL1        0.2467
      3  C2        -0.3080    0.3280   -0.3740 C.ar    1  UNL1        0.0372
      4  C3        -0.3960   -0.0920   -1.6780 C.ar    1  UNL1       -0.0496
      5  C4         0.5570    0.2790   -2.6310 C.ar    1  UNL1       -0.0608
      6  C5         1.6180    1.0760   -2.3110 C.ar    1  UNL1       -0.0582
      7  C6         1.7400    1.5200   -1.0060 C.ar    1  UNL1       -0.0408
      8  C7         2.8580    2.4010   -0.6670 C.3     1  UNL1        0.0168
      9  C8         4.1960    1.8480   -0.7470 C.ar    1  UNL1        0.0693
     10  N1         4.9410    2.0630   -1.8870 N.ar    1  UNL1       -0.1753
     11  N2         6.1500    1.5560   -2.0390 N.ar    1  UNL1       -0.2427
     12  C9         6.7510    0.7980   -1.1080 C.ar    1  UNL1        0.2682
     13  O2         7.9260    0.3340   -1.3120 O.2     1  UNL1       -0.2661
     14  C10        6.0710    0.5460    0.0450 C.ar    1  UNL1        0.0232
     15  C11        4.7860    1.0880    0.2010 C.ar    1  UNL1       -0.0158
     16  C12        4.1320    0.8060    1.4810 C.3     1  UNL1       -0.0255
     17  C13        4.1860   -0.7210    1.6530 C.3     1  UNL1       -0.0487
     18  C14        5.5750   -1.2420    1.6470 C.3     1  UNL1       -0.0486
     19  C15        6.6210   -0.2770    1.1420 C.3     1  UNL1       -0.0222
     20  C16        0.7980    1.1430   -0.1010 C.ar    1  UNL1       -0.0461
     21  N3        -2.1590   -1.0240    0.8080 N.am    1  UNL1       -0.2945
     22  C17       -2.4770   -2.0090   -0.1770 C.3     1  UNL1        0.0308
     23  C18       -3.7500   -1.5480   -0.8520 C.3     1  UNL1        0.0294
     24  N4        -4.6950   -1.2130    0.2130 N.pl3   1  UNL1       -0.3122
     25  C19       -5.9280   -0.5680   -0.1140 C.ar    1  UNL1        0.1213
     26  C20       -6.2150   -0.2710   -1.4200 C.ar    1  UNL1       -0.0217
     27  C21       -7.3880    0.3480   -1.7780 C.ar    1  UNL1       -0.0571
     28  C22       -8.2880    0.6730   -0.7860 C.ar    1  UNL1       -0.0435
     29  C23       -7.9620    0.3550    0.5340 C.ar    1  UNL1        0.0297
     30  N5        -6.8080   -0.2500    0.8420 N.ar    1  UNL1       -0.2403
     31  C24       -4.4070   -1.5230    1.5790 C.3     1  UNL1        0.0294
     32  C25       -3.0240   -1.0620    2.0170 C.3     1  UNL1        0.0308
     33 H          -1.1838   -0.6955   -1.9612 H       1  UNL1        0.0625
     34 H           0.4559   -0.0582   -3.6011 H       1  UNL1        0.0618
     35 H           2.3133    1.3414   -3.0260 H       1  UNL1        0.0620
     36 H           2.7091    2.7348    0.3386 H       1  UNL1        0.0377
     37 H           2.8357    3.1679   -1.4128 H       1  UNL1        0.0377
     38 H           6.6345    1.7426   -2.8754 H       1  UNL1        0.1921
     39 H           3.1166    1.1430    1.4626 H       1  UNL1        0.0314
     40 H           4.6174    1.3104    2.2903 H       1  UNL1        0.0314
     41 H           3.6447   -1.1766    0.8503 H       1  UNL1        0.0268
     42 H           3.7528   -0.9579    2.6023 H       1  UNL1        0.0268
     43 H           5.5995   -2.1122    1.0249 H       1  UNL1        0.0269
     44 H           5.8224   -1.4403    2.6690 H       1  UNL1        0.0269
     45 H           6.9280    0.3622    1.9433 H       1  UNL1        0.0315
     46 H           7.4589   -0.8320    0.7749 H       1  UNL1        0.0315
     47 H           0.9068    1.4854    0.8664 H       1  UNL1        0.0628
     48 H          -2.6291   -2.9607    0.2879 H       1  UNL1        0.0480
     49 H          -1.6821   -2.1184   -0.8848 H       1  UNL1        0.0480
     50 H          -4.1469   -2.3309   -1.4639 H       1  UNL1        0.0480
     51 H          -3.5663   -0.7031   -1.4824 H       1  UNL1        0.0480
     52 H          -5.5327   -0.5185   -2.1537 H       1  UNL1        0.0652
     53 H          -7.5905    0.5646   -2.7665 H       1  UNL1        0.0619
     54 H          -9.1801    1.1395   -1.0130 H       1  UNL1        0.0633
     55 H          -8.6250    0.5915    1.2886 H       1  UNL1        0.0830
     56 H          -4.4692   -2.5834    1.7080 H       1  UNL1        0.0480
     57 H          -5.1223   -1.0035    2.1818 H       1  UNL1        0.0480
     58 H          -3.0855   -0.0866    2.4525 H       1  UNL1        0.0480
     59 H          -2.6191   -1.7303    2.7480 H       1  UNL1        0.0480
@<TRIPOS>BOND
     1     1     2    2
     2     2     3    1
     3     2    21   am
     4     3     4   ar
     5     3    20   ar
     6     4     5   ar
     7     5     6   ar
     8     6     7   ar
     9     7     8    1
    10     7    20   ar
    11     8     9    1
    12     9    10   ar
    13     9    15   ar
    14    10    11   ar
    15    11    12   ar
    16    12    13    2
    17    12    14   ar
    18    14    15   ar
    19    14    19    1
    20    15    16    1
    21    16    17    1
    22    17    18    1
    23    18    19    1
    24    21    22    1
    25    21    32    1
    26    22    23    1
    27    23    24    1
    28    24    25    1
    29    24    31    1
    30    25    26   ar
    31    25    30   ar
    32    26    27   ar
    33    27    28   ar
    34    28    29   ar
    35    29    30   ar
    36    31    32    1
    37     4    33    1
    38     5    34    1
    39     6    35    1
    40     8    36    1
    41     8    37    1
    42    11    38    1
    43    16    39    1
    44    16    40    1
    45    17    41    1
    46    17    42    1
    47    18    43    1
    48    18    44    1
    49    19    45    1
    50    19    46    1
    51    20    47    1
    52    22    48    1
    53    22    49    1
    54    23    50    1
    55    23    51    1
    56    26    52    1
    57    27    53    1
    58    28    54    1
    59    29    55    1
    60    31    56    1
    61    31    57    1
    62    32    58    1
    63    32    59    1
@<TRIPOS>MOLECULE
../data/bude_mols_rdkit_confs2/molecule_98.pdb
 59 63 0 0 0
SMALL
GASTEIGER

@<TRIPOS>ATOM
      1  O1         0.9900   -1.8110    0.9090 O.2     1  UNL1       -0.2700
      2  C1         1.1600   -0.5060    0.7720 C.2     1  UNL1        0.2467
      3  C2        -0.0630    0.2820    0.7930 C.ar    1  UNL1        0.0372
      4  C3        -0.1350    1.5290    0.2560 C.ar    1  UNL1       -0.0496
      5  C4        -1.3190    2.2400    0.4240 C.ar    1  UNL1       -0.0608
      6  C5        -2.3950    1.7010    1.1140 C.ar    1  UNL1       -0.0582
      7  C6        -2.3440    0.4460    1.6590 C.ar    1  UNL1       -0.0408
      8  C7        -3.4680   -0.1970    2.4010 C.3     1  UNL1        0.0168
      9  C8        -4.0120   -1.3090    1.5970 C.ar    1  UNL1        0.0693
     10  N1        -3.5610   -2.6010    1.8400 N.ar    1  UNL1       -0.1753
     11  N2        -3.9830   -3.6230    1.1230 N.ar    1  UNL1       -0.2427
     12  C9        -4.8570   -3.4650    0.1390 C.ar    1  UNL1        0.2682
     13  O2        -5.2540   -4.4370   -0.5370 O.2     1  UNL1       -0.2661
     14  C10       -5.3330   -2.2120   -0.1400 C.ar    1  UNL1        0.0232
     15  C11       -4.9030   -1.1070    0.6050 C.ar    1  UNL1       -0.0158
     16  C12       -5.4920    0.1920    0.2680 C.3     1  UNL1       -0.0255
     17  C13       -5.2230    0.3910   -1.2310 C.3     1  UNL1       -0.0487
     18  C14       -5.9440   -0.6860   -1.9990 C.3     1  UNL1       -0.0486
     19  C15       -6.3040   -1.8980   -1.2110 C.3     1  UNL1       -0.0222
     20  C16       -1.1750   -0.2570    1.4940 C.ar    1  UNL1       -0.0461
     21  N3         2.4420   -0.0260    0.6310 N.am    1  UNL1       -0.2945
     22  C17        3.5210   -1.0480    0.5220 C.3     1  UNL1        0.0308
     23  C18        4.8550   -0.3990    0.4180 C.3     1  UNL1        0.0294
     24  N4         4.8940    0.6990   -0.5170 N.pl3   1  UNL1       -0.3122
     25  C19        6.0370    0.8980   -1.3220 C.ar    1  UNL1        0.1213
     26  C20        6.0900    1.9450   -2.2420 C.ar    1  UNL1       -0.0217
     27  C21        7.2070    2.1520   -3.0140 C.ar    1  UNL1       -0.0571
     28  C22        8.3090    1.3340   -2.9030 C.ar    1  UNL1       -0.0435
     29  C23        8.2430    0.2950   -1.9850 C.ar    1  UNL1        0.0297
     30  N5         7.1340    0.1320   -1.2540 N.ar    1  UNL1       -0.2403
     31  C24        3.7470    1.6040   -0.5880 C.3     1  UNL1        0.0294
     32  C25        2.8940    1.3170    0.6720 C.3     1  UNL1        0.0308
     33 H           0.6620    1.9346   -0.2590 H       1  UNL1        0.0625
     34 H          -1.3985    3.1891    0.0266 H       1  UNL1        0.0618
     35 H          -3.2559    2.2603    1.2192 H       1  UNL1        0.0620
     36 H          -4.2375    0.5248    2.5792 H       1  UNL1        0.0377
     37 H          -3.1103   -0.5733    3.3366 H       1  UNL1        0.0377
     38 H          -3.6413   -4.5244    1.3227 H       1  UNL1        0.1921
     39 H          -5.0292    0.9709    0.8372 H       1  UNL1        0.0314
     40 H          -6.5383    0.2219    0.4899 H       1  UNL1        0.0314
     41 H          -4.1718    0.3254   -1.4199 H       1  UNL1        0.0268
     42 H          -5.5725    1.3542   -1.5391 H       1  UNL1        0.0268
     43 H          -5.3145   -0.9928   -2.8081 H       1  UNL1        0.0269
     44 H          -6.8700   -0.2536   -2.3161 H       1  UNL1        0.0269
     45 H          -7.2629   -1.7392   -0.7636 H       1  UNL1        0.0315
     46 H          -6.3060   -2.7262   -1.8884 H       1  UNL1        0.0315
     47 H          -1.1025   -1.2065    1.8918 H       1  UNL1        0.0628
     48 H           3.3522   -1.6446   -0.3501 H       1  UNL1        0.0480
     49 H           3.5045   -1.6589    1.4003 H       1  UNL1        0.0480
     50 H           5.5654   -1.1352    0.1045 H       1  UNL1        0.0480
     51 H           5.0832    0.0034    1.3828 H       1  UNL1        0.0480
     52 H           5.2779    2.5735   -2.3442 H       1  UNL1        0.0652
     53 H           7.2205    2.9333   -3.6881 H       1  UNL1        0.0619
     54 H           9.1510    1.4874   -3.4797 H       1  UNL1        0.0633
     55 H           9.0427   -0.3466   -1.8671 H       1  UNL1        0.0830
     56 H           3.1774    1.4127   -1.4734 H       1  UNL1        0.0480
     57 H           4.0583    2.6271   -0.6243 H       1  UNL1        0.0480
     58 H           3.4882    1.4683    1.5489 H       1  UNL1        0.0480
     59 H           2.0539    1.9792    0.6967 H       1  UNL1        0.0480
@<TRIPOS>BOND
     1     1     2    2
     2     2     3    1
     3     2    21   am
     4     3     4   ar
     5     3    20   ar
     6     4     5   ar
     7     5     6   ar
     8     6     7   ar
     9     7     8    1
    10     7    20   ar
    11     8     9    1
    12     9    10   ar
    13     9    15   ar
    14    10    11   ar
    15    11    12   ar
    16    12    13    2
    17    12    14   ar
    18    14    15   ar
    19    14    19    1
    20    15    16    1
    21    16    17    1
    22    17    18    1
    23    18    19    1
    24    21    22    1
    25    21    32    1
    26    22    23    1
    27    23    24    1
    28    24    25    1
    29    24    31    1
    30    25    26   ar
    31    25    30   ar
    32    26    27   ar
    33    27    28   ar
    34    28    29   ar
    35    29    30   ar
    36    31    32    1
    37     4    33    1
    38     5    34    1
    39     6    35    1
    40     8    36    1
    41     8    37    1
    42    11    38    1
    43    16    39    1
    44    16    40    1
    45    17    41    1
    46    17    42    1
    47    18    43    1
    48    18    44    1
    49    19    45    1
    50    19    46    1
    51    20    47    1
    52    22    48    1
    53    22    49    1
    54    23    50    1
    55    23    51    1
    56    26    52    1
    57    27    53    1
    58    28    54    1
    59    29    55    1
    60    31    56    1
    61    31    57    1
    62    32    58    1
    63    32    59    1
@<TRIPOS>MOLECULE
../data/bude_mols_rdkit_confs2/molecule_98.pdb
 59 63 0 0 0
SMALL
GASTEIGER

@<TRIPOS>ATOM
      1  O1         1.4280   -0.8940   -3.3590 O.2     1  UNL1       -0.2700
      2  C1         1.1790   -0.4880   -2.1410 C.2     1  UNL1        0.2467
      3  C2        -0.0400    0.2870   -2.0370 C.ar    1  UNL1        0.0372
      4  C3        -0.7530    0.5940   -3.2130 C.ar    1  UNL1       -0.0496
      5  C4        -1.9190    1.3110   -3.2150 C.ar    1  UNL1       -0.0608
      6  C5        -2.4350    1.7650   -1.9940 C.ar    1  UNL1       -0.0582
      7  C6        -1.7920    1.5000   -0.8220 C.ar    1  UNL1       -0.0408
      8  C7        -2.2700    1.9340    0.5110 C.3     1  UNL1        0.0168
      9  C8        -2.9990    0.8910    1.2360 C.ar    1  UNL1        0.0693
     10  N1        -2.3280    0.1250    2.1360 N.ar    1  UNL1       -0.1753
     11  N2        -2.8800   -0.8680    2.8090 N.ar    1  UNL1       -0.2427
     12  C9        -4.1740   -1.1710    2.6250 C.ar    1  UNL1        0.2682
     13  O2        -4.7520   -2.1160    3.2460 O.2     1  UNL1       -0.2661
     14  C10       -4.8960   -0.4260    1.7250 C.ar    1  UNL1        0.0232
     15  C11       -4.3120    0.6220    1.0160 C.ar    1  UNL1       -0.0158
     16  C12       -5.2350    1.3440    0.1240 C.3     1  UNL1       -0.0255
     17  C13       -5.7640    0.3190   -0.8540 C.3     1  UNL1       -0.0487
     18  C14       -6.5900   -0.6750   -0.0700 C.3     1  UNL1       -0.0486
     19  C15       -6.3410   -0.6580    1.4100 C.3     1  UNL1       -0.0222
     20  C16       -0.5980    0.7570   -0.8870 C.ar    1  UNL1       -0.0461
     21  N3         2.1070   -0.8620   -1.1820 N.am    1  UNL1       -0.2945
     22  C17        3.2440   -1.6900   -1.6670 C.3     1  UNL1        0.0308
     23  C18        4.4930   -0.8390   -1.3570 C.3     1  UNL1        0.0294
     24  N4         4.5760   -0.7500    0.0960 N.pl3   1  UNL1       -0.3122
     25  C19        5.7940   -0.3680    0.6830 C.ar    1  UNL1        0.1213
     26  C20        6.9120   -0.0270   -0.0690 C.ar    1  UNL1       -0.0217
     27  C21        8.1110    0.3480    0.5050 C.ar    1  UNL1       -0.0571
     28  C22        8.2090    0.3880    1.8780 C.ar    1  UNL1       -0.0435
     29  C23        7.1110    0.0530    2.6110 C.ar    1  UNL1        0.0297
     30  N5         5.9520   -0.3090    2.0360 N.ar    1  UNL1       -0.2403
     31  C24        3.4140   -1.0520    0.9100 C.3     1  UNL1        0.0294
     32  C25        2.1430   -0.5540    0.2030 C.3     1  UNL1        0.0308
     33 H          -0.3783    0.2625   -4.1156 H       1  UNL1        0.0625
     34 H          -2.4094    1.5136   -4.1002 H       1  UNL1        0.0618
     35 H          -3.3132    2.3070   -1.9820 H       1  UNL1        0.0620
     36 H          -2.9198    2.7741    0.3812 H       1  UNL1        0.0377
     37 H          -1.4054    2.1772    1.0926 H       1  UNL1        0.0377
     38 H          -2.3404   -1.3876    3.4478 H       1  UNL1        0.1921
     39 H          -4.7156    2.1207   -0.3973 H       1  UNL1        0.0314
     40 H          -6.0289    1.8044    0.6741 H       1  UNL1        0.0314
     41 H          -4.9495   -0.1816   -1.3345 H       1  UNL1        0.0268
     42 H          -6.3586    0.7904   -1.6084 H       1  UNL1        0.0268
     43 H          -6.3685   -1.6560   -0.4353 H       1  UNL1        0.0269
     44 H          -7.6142   -0.3988   -0.2104 H       1  UNL1        0.0269
     45 H          -6.9221    0.1250    1.8506 H       1  UNL1        0.0315
     46 H          -6.6202   -1.6118    1.8065 H       1  UNL1        0.0315
     47 H          -0.1109    0.5540   -0.0001 H       1  UNL1        0.0628
     48 H           3.1599   -1.8712   -2.7182 H       1  UNL1        0.0480
     49 H           3.2781   -2.6522   -1.2001 H       1  UNL1        0.0480
     50 H           4.3914    0.1373   -1.7830 H       1  UNL1        0.0480
     51 H           5.3762   -1.2786   -1.7712 H       1  UNL1        0.0480
     52 H           6.8435   -0.0551   -1.0983 H       1  UNL1        0.0652
     53 H           8.9206    0.5943   -0.0857 H       1  UNL1        0.0619
     54 H           9.0901    0.6642    2.3389 H       1  UNL1        0.0633
     55 H           7.1713    0.0780    3.6409 H       1  UNL1        0.0830
     56 H           3.5076   -0.5651    1.8582 H       1  UNL1        0.0480
     57 H           3.3478   -2.1101    1.0546 H       1  UNL1        0.0480
     58 H           1.2949   -1.0068    0.6726 H       1  UNL1        0.0480
     59 H           2.1333    0.5126    0.2882 H       1  UNL1        0.0480
@<TRIPOS>BOND
     1     1     2    2
     2     2     3    1
     3     2    21   am
     4     3     4   ar
     5     3    20   ar
     6     4     5   ar
     7     5     6   ar
     8     6     7   ar
     9     7     8    1
    10     7    20   ar
    11     8     9    1
    12     9    10   ar
    13     9    15   ar
    14    10    11   ar
    15    11    12   ar
    16    12    13    2
    17    12    14   ar
    18    14    15   ar
    19    14    19    1
    20    15    16    1
    21    16    17    1
    22    17    18    1
    23    18    19    1
    24    21    22    1
    25    21    32    1
    26    22    23    1
    27    23    24    1
    28    24    25    1
    29    24    31    1
    30    25    26   ar
    31    25    30   ar
    32    26    27   ar
    33    27    28   ar
    34    28    29   ar
    35    29    30   ar
    36    31    32    1
    37     4    33    1
    38     5    34    1
    39     6    35    1
    40     8    36    1
    41     8    37    1
    42    11    38    1
    43    16    39    1
    44    16    40    1
    45    17    41    1
    46    17    42    1
    47    18    43    1
    48    18    44    1
    49    19    45    1
    50    19    46    1
    51    20    47    1
    52    22    48    1
    53    22    49    1
    54    23    50    1
    55    23    51    1
    56    26    52    1
    57    27    53    1
    58    28    54    1
    59    29    55    1
    60    31    56    1
    61    31    57    1
    62    32    58    1
    63    32    59    1
@<TRIPOS>MOLECULE
../data/bude_mols_rdkit_confs2/molecule_98.pdb
 59 63 0 0 0
SMALL
GASTEIGER

@<TRIPOS>ATOM
      1  O1         1.5820   -0.4030   -3.9290 O.2     1  UNL1       -0.2700
      2  C1         1.3860   -0.4850   -2.6280 C.2     1  UNL1        0.2467
      3  C2         0.0000   -0.4690   -2.1850 C.ar    1  UNL1        0.0372
      4  C3        -1.0010   -0.4870   -3.1790 C.ar    1  UNL1       -0.0496
      5  C4        -2.3230   -0.4450   -2.8610 C.ar    1  UNL1       -0.0608
      6  C5        -2.7090   -0.3830   -1.5210 C.ar    1  UNL1       -0.0582
      7  C6        -1.7960   -0.3610   -0.5230 C.ar    1  UNL1       -0.0408
      8  C7        -2.1170   -0.2590    0.9090 C.3     1  UNL1        0.0168
      9  C8        -3.4300   -0.7910    1.2900 C.ar    1  UNL1        0.0693
     10  N1        -3.5620   -2.0610    1.7590 N.ar    1  UNL1       -0.1753
     11  N2        -4.7450   -2.5570    2.0760 N.ar    1  UNL1       -0.2427
     12  C9        -5.8760   -1.8500    1.9550 C.ar    1  UNL1        0.2682
     13  O2        -6.9760   -2.3720    2.2690 O.2     1  UNL1       -0.2661
     14  C10       -5.8240   -0.5660    1.4900 C.ar    1  UNL1        0.0232
     15  C11       -4.5680   -0.0480    1.1590 C.ar    1  UNL1       -0.0158
     16  C12       -4.5320    1.3430    0.6980 C.3     1  UNL1       -0.0255
     17  C13       -5.4770    2.1400    1.6070 C.3     1  UNL1       -0.0487
     18  C14       -6.8920    1.6920    1.4100 C.3     1  UNL1       -0.0486
     19  C15       -7.0690    0.2110    1.3540 C.3     1  UNL1       -0.0222
     20  C16       -0.4390   -0.4070   -0.8940 C.ar    1  UNL1       -0.0461
     21  N3         2.5780   -0.5740   -1.9170 N.am    1  UNL1       -0.2945
     22  C17        2.6990   -0.7050   -0.4940 C.3     1  UNL1        0.0308
     23  C18        4.1690   -1.0180   -0.1190 C.3     1  UNL1        0.0294
     24  N4         5.0440   -0.0500   -0.7120 N.pl3   1  UNL1       -0.3122
     25  C19        6.2420    0.3500   -0.0680 C.ar    1  UNL1        0.1213
     26  C20        6.6920   -0.2450    1.0970 C.ar    1  UNL1       -0.0217
     27  C21        7.8640    0.1760    1.7110 C.ar    1  UNL1       -0.0571
     28  C22        8.5980    1.2030    1.1590 C.ar    1  UNL1       -0.0435
     29  C23        8.1390    1.7840    0.0030 C.ar    1  UNL1        0.0297
     30  N5         7.0090    1.3530   -0.5600 N.ar    1  UNL1       -0.2403
     31  C24        4.6990    0.5230   -1.9890 C.3     1  UNL1        0.0294
     32  C25        3.8510   -0.5160   -2.7120 C.3     1  UNL1        0.0308
     33 H          -0.7235   -0.5332   -4.1719 H       1  UNL1        0.0625
     34 H          -3.0366   -0.4589   -3.6064 H       1  UNL1        0.0618
     35 H          -3.7135   -0.3533   -1.2863 H       1  UNL1        0.0620
     36 H          -2.0855    0.7748    1.1833 H       1  UNL1        0.0377
     37 H          -1.3923   -0.8570    1.4210 H       1  UNL1        0.0377
     38 H          -4.7969   -3.4803    2.4136 H       1  UNL1        0.1921
     39 H          -4.8623    1.4023   -0.3180 H       1  UNL1        0.0314
     40 H          -3.5374    1.7351    0.7427 H       1  UNL1        0.0314
     41 H          -5.4003    3.1805    1.3695 H       1  UNL1        0.0268
     42 H          -5.1993    1.9742    2.6269 H       1  UNL1        0.0268
     43 H          -7.2491    2.1065    0.4904 H       1  UNL1        0.0269
     44 H          -7.4411    2.0326    2.2629 H       1  UNL1        0.0269
     45 H          -7.7284   -0.0756    2.1464 H       1  UNL1        0.0315
     46 H          -7.4568   -0.0094    0.3814 H       1  UNL1        0.0315
     47 H           0.2685   -0.3930   -0.1428 H       1  UNL1        0.0628
     48 H           2.0689   -1.5009   -0.1557 H       1  UNL1        0.0480
     49 H           2.4032    0.2118   -0.0284 H       1  UNL1        0.0480
     50 H           4.4257   -1.9933   -0.4764 H       1  UNL1        0.0480
     51 H           4.2750   -0.9813    0.9451 H       1  UNL1        0.0480
     52 H           6.1475   -1.0146    1.5167 H       1  UNL1        0.0652
     53 H           8.1848   -0.2797    2.5796 H       1  UNL1        0.0619
     54 H           9.4711    1.5274    1.6035 H       1  UNL1        0.0633
     55 H           8.6691    2.5556   -0.4313 H       1  UNL1        0.0830
     56 H           5.5846    0.7341   -2.5512 H       1  UNL1        0.0480
     57 H           4.1665    1.4434   -1.8699 H       1  UNL1        0.0480
     58 H           3.6555   -0.2116   -3.7190 H       1  UNL1        0.0480
     59 H           4.3367   -1.4673   -2.7763 H       1  UNL1        0.0480
@<TRIPOS>BOND
     1     1     2    2
     2     2     3    1
     3     2    21   am
     4     3     4   ar
     5     3    20   ar
     6     4     5   ar
     7     5     6   ar
     8     6     7   ar
     9     7     8    1
    10     7    20   ar
    11     8     9    1
    12     9    10   ar
    13     9    15   ar
    14    10    11   ar
    15    11    12   ar
    16    12    13    2
    17    12    14   ar
    18    14    15   ar
    19    14    19    1
    20    15    16    1
    21    16    17    1
    22    17    18    1
    23    18    19    1
    24    21    22    1
    25    21    32    1
    26    22    23    1
    27    23    24    1
    28    24    25    1
    29    24    31    1
    30    25    26   ar
    31    25    30   ar
    32    26    27   ar
    33    27    28   ar
    34    28    29   ar
    35    29    30   ar
    36    31    32    1
    37     4    33    1
    38     5    34    1
    39     6    35    1
    40     8    36    1
    41     8    37    1
    42    11    38    1
    43    16    39    1
    44    16    40    1
    45    17    41    1
    46    17    42    1
    47    18    43    1
    48    18    44    1
    49    19    45    1
    50    19    46    1
    51    20    47    1
    52    22    48    1
    53    22    49    1
    54    23    50    1
    55    23    51    1
    56    26    52    1
    57    27    53    1
    58    28    54    1
    59    29    55    1
    60    31    56    1
    61    31    57    1
    62    32    58    1
    63    32    59    1
@<TRIPOS>MOLECULE
../data/bude_mols_rdkit_confs2/molecule_98.pdb
 59 63 0 0 0
SMALL
GASTEIGER

@<TRIPOS>ATOM
      1  O1         1.0820    1.6570    0.6820 O.2     1  UNL1       -0.2700
      2  C1         1.2300    0.6240   -0.1140 C.2     1  UNL1        0.2467
      3  C2         0.0650    0.3080   -0.8760 C.ar    1  UNL1        0.0372
      4  C3        -0.0780   -0.6940   -1.8040 C.ar    1  UNL1       -0.0496
      5  C4        -1.2640   -0.9440   -2.5080 C.ar    1  UNL1       -0.0608
      6  C5        -2.3580   -0.1230   -2.2440 C.ar    1  UNL1       -0.0582
      7  C6        -2.2800    0.8810   -1.3400 C.ar    1  UNL1       -0.0408
      8  C7        -3.4240    1.7610   -1.0300 C.3     1  UNL1        0.0168
      9  C8        -4.0180    1.3970    0.2330 C.ar    1  UNL1        0.0693
     10  N1        -3.6250    2.0720    1.3550 N.ar    1  UNL1       -0.1753
     11  N2        -4.0800    1.7740    2.5600 N.ar    1  UNL1       -0.2427
     12  C9        -4.9660    0.7780    2.7520 C.ar    1  UNL1        0.2682
     13  O2        -5.3620    0.5420    3.9310 O.2     1  UNL1       -0.2661
     14  C10       -5.4080    0.0540    1.6660 C.ar    1  UNL1        0.0232
     15  C11       -4.9060    0.3980    0.3990 C.ar    1  UNL1       -0.0158
     16  C12       -5.4380   -0.3590   -0.7240 C.3     1  UNL1       -0.0255
     17  C13       -6.9470   -0.5090   -0.4980 C.3     1  UNL1       -0.0487
     18  C14       -7.2350   -1.3280    0.7070 C.3     1  UNL1       -0.0486
     19  C15       -6.3710   -1.0480    1.8840 C.3     1  UNL1       -0.0222
     20  C16       -1.1010    1.0910   -0.6750 C.ar    1  UNL1       -0.0461
     21  N3         2.5220    0.0500   -0.0390 N.am    1  UNL1       -0.2945
     22  C17        2.9310   -1.0730   -0.7920 C.3     1  UNL1        0.0308
     23  C18        4.3150   -1.5780   -0.5960 C.3     1  UNL1        0.0294
     24  N4         5.1370   -0.8040    0.2810 N.pl3   1  UNL1       -0.3122
     25  C19        6.5240   -0.5990    0.0150 C.ar    1  UNL1        0.1213
     26  C20        7.3670    0.1390    0.8030 C.ar    1  UNL1       -0.0217
     27  C21        8.7060    0.3070    0.5010 C.ar    1  UNL1       -0.0571
     28  C22        9.2170   -0.2860   -0.6320 C.ar    1  UNL1       -0.0435
     29  C23        8.3410   -1.0160   -1.3940 C.ar    1  UNL1        0.0297
     30  N5         7.0560   -1.1760   -1.1020 N.ar    1  UNL1       -0.2403
     31  C24        4.4730   -0.2460    1.4490 C.3     1  UNL1        0.0294
     32  C25        3.4600    0.7090    0.9010 C.3     1  UNL1        0.0308
     33 H           0.7361   -1.2989   -1.9944 H       1  UNL1        0.0625
     34 H          -1.3246   -1.7093   -3.1976 H       1  UNL1        0.0618
     35 H          -3.2446   -0.2834   -2.7473 H       1  UNL1        0.0620
     36 H          -4.1579    1.6689   -1.8031 H       1  UNL1        0.0377
     37 H          -3.0753    2.7707   -0.9685 H       1  UNL1        0.0377
     38 H          -3.7638    2.2922    3.3350 H       1  UNL1        0.1921
     39 H          -4.9765   -1.3234   -0.7671 H       1  UNL1        0.0314
     40 H          -5.2412    0.1442   -1.6476 H       1  UNL1        0.0314
     41 H          -7.3818   -0.9828   -1.3532 H       1  UNL1        0.0268
     42 H          -7.3643    0.4653   -0.3510 H       1  UNL1        0.0268
     43 H          -7.1127   -2.3580    0.4442 H       1  UNL1        0.0269
     44 H          -8.2320   -1.0782    1.0044 H       1  UNL1        0.0269
     45 H          -6.9994   -0.7890    2.7104 H       1  UNL1        0.0315
     46 H          -5.7977   -1.9324    2.0686 H       1  UNL1        0.0315
     47 H          -1.0585    1.8615    0.0102 H       1  UNL1        0.0628
     48 H           2.8291   -0.8171   -1.8259 H       1  UNL1        0.0480
     49 H           2.3047   -1.8688   -0.4466 H       1  UNL1        0.0480
     50 H           4.7927   -1.6089   -1.5530 H       1  UNL1        0.0480
     51 H           4.2136   -2.5367   -0.1317 H       1  UNL1        0.0480
     52 H           6.9891    0.5859    1.6530 H       1  UNL1        0.0652
     53 H           9.3143    0.8693    1.1165 H       1  UNL1        0.0619
     54 H          10.2100   -0.1860   -0.8947 H       1  UNL1        0.0633
     55 H           8.7034   -1.4691   -2.2475 H       1  UNL1        0.0830
     56 H           5.1758    0.2677    2.0712 H       1  UNL1        0.0480
     57 H           4.0230   -1.0042    2.0553 H       1  UNL1        0.0480
     58 H           2.9001    1.1219    1.7140 H       1  UNL1        0.0480
     59 H           3.9837    1.4712    0.3629 H       1  UNL1        0.0480
@<TRIPOS>BOND
     1     1     2    2
     2     2     3    1
     3     2    21   am
     4     3     4   ar
     5     3    20   ar
     6     4     5   ar
     7     5     6   ar
     8     6     7   ar
     9     7     8    1
    10     7    20   ar
    11     8     9    1
    12     9    10   ar
    13     9    15   ar
    14    10    11   ar
    15    11    12   ar
    16    12    13    2
    17    12    14   ar
    18    14    15   ar
    19    14    19    1
    20    15    16    1
    21    16    17    1
    22    17    18    1
    23    18    19    1
    24    21    22    1
    25    21    32    1
    26    22    23    1
    27    23    24    1
    28    24    25    1
    29    24    31    1
    30    25    26   ar
    31    25    30   ar
    32    26    27   ar
    33    27    28   ar
    34    28    29   ar
    35    29    30   ar
    36    31    32    1
    37     4    33    1
    38     5    34    1
    39     6    35    1
    40     8    36    1
    41     8    37    1
    42    11    38    1
    43    16    39    1
    44    16    40    1
    45    17    41    1
    46    17    42    1
    47    18    43    1
    48    18    44    1
    49    19    45    1
    50    19    46    1
    51    20    47    1
    52    22    48    1
    53    22    49    1
    54    23    50    1
    55    23    51    1
    56    26    52    1
    57    27    53    1
    58    28    54    1
    59    29    55    1
    60    31    56    1
    61    31    57    1
    62    32    58    1
    63    32    59    1
@<TRIPOS>MOLECULE
../data/bude_mols_rdkit_confs2/molecule_98.pdb
 59 63 0 0 0
SMALL
GASTEIGER

@<TRIPOS>ATOM
      1  O1         1.4150    0.3540    2.3980 O.2     1  UNL1       -0.2700
      2  C1         1.5420    0.1670    1.0970 C.2     1  UNL1        0.2467
      3  C2         0.2860    0.0670    0.4160 C.ar    1  UNL1        0.0372
      4  C3         0.1380   -0.4140   -0.8520 C.ar    1  UNL1       -0.0496
      5  C4        -1.1240   -0.4120   -1.4590 C.ar    1  UNL1       -0.0608
      6  C5        -2.2350    0.0620   -0.8110 C.ar    1  UNL1       -0.0582
      7  C6        -2.1260    0.5530    0.4700 C.ar    1  UNL1       -0.0408
      8  C7        -3.3030    1.0860    1.2370 C.3     1  UNL1        0.0168
      9  C8        -4.4890    1.1540    0.3730 C.ar    1  UNL1        0.0693
     10  N1        -4.8080    2.3780   -0.1540 N.ar    1  UNL1       -0.1753
     11  N2        -5.8230    2.5640   -0.9510 N.ar    1  UNL1       -0.2427
     12  C9        -6.6180    1.5220   -1.2930 C.ar    1  UNL1        0.2682
     13  O2        -7.6090    1.6470   -2.0580 O.2     1  UNL1       -0.2661
     14  C10       -6.3440    0.2830   -0.7960 C.ar    1  UNL1        0.0232
     15  C11       -5.2680    0.0640    0.0550 C.ar    1  UNL1       -0.0158
     16  C12       -4.9550   -1.2570    0.6160 C.3     1  UNL1       -0.0255
     17  C13       -6.1670   -2.1130    0.8360 C.3     1  UNL1       -0.0487
     18  C14       -7.4210   -1.6190    0.1930 C.3     1  UNL1       -0.0486
     19  C15       -7.1730   -0.9110   -1.1220 C.3     1  UNL1       -0.0222
     20  C16       -0.8910    0.5430    1.0390 C.ar    1  UNL1       -0.0461
     21  N3         2.8330    0.0990    0.5830 N.am    1  UNL1       -0.2945
     22  C17        3.9030    0.1600    1.6080 C.3     1  UNL1        0.0308
     23  C18        4.9390    1.1600    1.1670 C.3     1  UNL1        0.0294
     24  N4         5.4470    0.6230   -0.1030 N.pl3   1  UNL1       -0.3122
     25  C19        6.7620    0.1750   -0.2020 C.ar    1  UNL1        0.1213
     26  C20        7.3180   -0.2000   -1.3980 C.ar    1  UNL1       -0.0217
     27  C21        8.6310   -0.6550   -1.4860 C.ar    1  UNL1       -0.0571
     28  C22        9.3580   -0.7150   -0.3210 C.ar    1  UNL1       -0.0435
     29  C23        8.8080   -0.3410    0.8790 C.ar    1  UNL1        0.0297
     30  N5         7.5490    0.0840    0.8950 N.ar    1  UNL1       -0.2403
     31  C24        4.5230    0.5900   -1.1710 C.3     1  UNL1        0.0294
     32  C25        3.1430    0.0380   -0.7980 C.3     1  UNL1        0.0308
     33 H           0.9562   -0.7794   -1.3640 H       1  UNL1        0.0625
     34 H          -1.2201   -0.7770   -2.4195 H       1  UNL1        0.0618
     35 H          -3.1525    0.0507   -1.2834 H       1  UNL1        0.0620
     36 H          -3.0735    2.0666    1.5985 H       1  UNL1        0.0377
     37 H          -3.5084    0.4304    2.0573 H       1  UNL1        0.0377
     38 H          -6.0119    3.4631   -1.3047 H       1  UNL1        0.1921
     39 H          -4.4625   -1.1184    1.5558 H       1  UNL1        0.0314
     40 H          -4.3354   -1.7632   -0.0945 H       1  UNL1        0.0314
     41 H          -6.3392   -2.1780    1.8901 H       1  UNL1        0.0268
     42 H          -5.9509   -3.0559    0.3786 H       1  UNL1        0.0268
     43 H          -7.9012   -0.9362    0.8624 H       1  UNL1        0.0269
     44 H          -8.0321   -2.4726   -0.0137 H       1  UNL1        0.0269
     45 H          -6.6488   -1.5543   -1.7974 H       1  UNL1        0.0315
     46 H          -8.0909   -0.6329   -1.5964 H       1  UNL1        0.0315
     47 H          -0.8061    0.9111    1.9994 H       1  UNL1        0.0628
     48 H           4.3553   -0.8039    1.7138 H       1  UNL1        0.0480
     49 H           3.4891    0.4556    2.5494 H       1  UNL1        0.0480
     50 H           5.7255    1.2337    1.8887 H       1  UNL1        0.0480
     51 H           4.5359    2.1455    1.0613 H       1  UNL1        0.0480
     52 H           6.7478   -0.1435   -2.2563 H       1  UNL1        0.0652
     53 H           9.0420   -0.9360   -2.3900 H       1  UNL1        0.0619
     54 H          10.3347   -1.0472   -0.3494 H       1  UNL1        0.0633
     55 H           9.3597   -0.3887    1.7498 H       1  UNL1        0.0830
     56 H           4.9303   -0.0239   -1.9469 H       1  UNL1        0.0480
     57 H           4.3735    1.6045   -1.4766 H       1  UNL1        0.0480
     58 H           2.4044    0.6003   -1.3302 H       1  UNL1        0.0480
     59 H           3.1525   -0.9995   -1.0594 H       1  UNL1        0.0480
@<TRIPOS>BOND
     1     1     2    2
     2     2     3    1
     3     2    21   am
     4     3     4   ar
     5     3    20   ar
     6     4     5   ar
     7     5     6   ar
     8     6     7   ar
     9     7     8    1
    10     7    20   ar
    11     8     9    1
    12     9    10   ar
    13     9    15   ar
    14    10    11   ar
    15    11    12   ar
    16    12    13    2
    17    12    14   ar
    18    14    15   ar
    19    14    19    1
    20    15    16    1
    21    16    17    1
    22    17    18    1
    23    18    19    1
    24    21    22    1
    25    21    32    1
    26    22    23    1
    27    23    24    1
    28    24    25    1
    29    24    31    1
    30    25    26   ar
    31    25    30   ar
    32    26    27   ar
    33    27    28   ar
    34    28    29   ar
    35    29    30   ar
    36    31    32    1
    37     4    33    1
    38     5    34    1
    39     6    35    1
    40     8    36    1
    41     8    37    1
    42    11    38    1
    43    16    39    1
    44    16    40    1
    45    17    41    1
    46    17    42    1
    47    18    43    1
    48    18    44    1
    49    19    45    1
    50    19    46    1
    51    20    47    1
    52    22    48    1
    53    22    49    1
    54    23    50    1
    55    23    51    1
    56    26    52    1
    57    27    53    1
    58    28    54    1
    59    29    55    1
    60    31    56    1
    61    31    57    1
    62    32    58    1
    63    32    59    1
@<TRIPOS>MOLECULE
../data/bude_mols_rdkit_confs2/molecule_98.pdb
 59 63 0 0 0
SMALL
GASTEIGER

@<TRIPOS>ATOM
      1  O1         2.0630   -3.5920    0.3550 O.2     1  UNL1       -0.2700
      2  C1         1.7030   -2.3270    0.2750 C.2     1  UNL1        0.2467
      3  C2         0.2970   -2.0950    0.1610 C.ar    1  UNL1        0.0372
      4  C3        -0.5410   -3.2250    0.3320 C.ar    1  UNL1       -0.0496
      5  C4        -1.9010   -3.1700    0.2210 C.ar    1  UNL1       -0.0608
      6  C5        -2.4960   -1.9560   -0.0730 C.ar    1  UNL1       -0.0582
      7  C6        -1.7330   -0.8310   -0.2490 C.ar    1  UNL1       -0.0408
      8  C7        -2.2940    0.5250   -0.5640 C.3     1  UNL1        0.0168
      9  C8        -3.6930    0.4220   -1.0070 C.ar    1  UNL1        0.0693
     10  N1        -3.9200    0.4090   -2.3480 N.ar    1  UNL1       -0.1753
     11  N2        -5.1240    0.2930   -2.8830 N.ar    1  UNL1       -0.2427
     12  C9        -6.2190    0.1780   -2.1130 C.ar    1  UNL1        0.2682
     13  O2        -7.3810    0.0650   -2.5880 O.2     1  UNL1       -0.2661
     14  C10       -6.0570    0.1850   -0.7620 C.ar    1  UNL1        0.0232
     15  C11       -4.7930    0.3070   -0.1920 C.ar    1  UNL1       -0.0158
     16  C12       -4.6110    0.3450    1.2630 C.3     1  UNL1       -0.0255
     17  C13       -5.7050    1.0900    1.9790 C.3     1  UNL1       -0.0487
     18  C14       -6.9940    1.1480    1.2400 C.3     1  UNL1       -0.0486
     19  C15       -7.1860    0.0700    0.2210 C.3     1  UNL1       -0.0222
     20  C16       -0.3310   -0.9110   -0.1290 C.ar    1  UNL1       -0.0461
     21  N3         2.7360   -1.3970    0.3130 N.am    1  UNL1       -0.2945
     22  C17        4.1280   -1.9720    0.4000 C.3     1  UNL1        0.0308
     23  C18        4.9310   -1.1260   -0.5830 C.3     1  UNL1        0.0294
     24  N4         5.0560    0.1720    0.0240 N.pl3   1  UNL1       -0.3122
     25  C19        6.2340    0.9260   -0.1010 C.ar    1  UNL1        0.1213
     26  C20        7.3440    0.5440   -0.8160 C.ar    1  UNL1       -0.0217
     27  C21        8.4480    1.3510   -0.8780 C.ar    1  UNL1       -0.0571
     28  C22        8.4650    2.5510   -0.2280 C.ar    1  UNL1       -0.0435
     29  C23        7.3370    2.9250    0.4900 C.ar    1  UNL1        0.0297
     30  N5         6.2880    2.1160    0.5250 N.ar    1  UNL1       -0.2403
     31  C24        3.9350    0.6770    0.7680 C.3     1  UNL1        0.0294
     32  C25        2.6040    0.0150    0.3170 C.3     1  UNL1        0.0308
     33 H          -0.1024   -4.1331    0.5509 H       1  UNL1        0.0625
     34 H          -2.4741   -4.0179    0.3539 H       1  UNL1        0.0618
     35 H          -3.5226   -1.8970   -0.1605 H       1  UNL1        0.0620
     36 H          -1.7119    0.9733   -1.3419 H       1  UNL1        0.0377
     37 H          -2.2581    1.1249    0.3213 H       1  UNL1        0.0377
     38 H          -5.2195    0.2909   -3.8629 H       1  UNL1        0.1921
     39 H          -3.6780    0.8234    1.4765 H       1  UNL1        0.0314
     40 H          -4.6341   -0.6661    1.6124 H       1  UNL1        0.0314
     41 H          -5.3714    2.0923    2.1492 H       1  UNL1        0.0268
     42 H          -5.8965    0.5546    2.8854 H       1  UNL1        0.0268
     43 H          -7.0475    2.0920    0.7390 H       1  UNL1        0.0269
     44 H          -7.7643    1.0109    1.9699 H       1  UNL1        0.0269
     45 H          -7.1647   -0.8897    0.6936 H       1  UNL1        0.0315
     46 H          -8.1307    0.1746   -0.2704 H       1  UNL1        0.0315
     47 H           0.2359   -0.0590   -0.2624 H       1  UNL1        0.0628
     48 H           4.1341   -3.0021    0.1105 H       1  UNL1        0.0480
     49 H           4.5266   -1.9445    1.3926 H       1  UNL1        0.0480
     50 H           4.4154   -1.0516   -1.5176 H       1  UNL1        0.0480
     51 H           5.8884   -1.5596   -0.7835 H       1  UNL1        0.0480
     52 H           7.3451   -0.3612   -1.3116 H       1  UNL1        0.0652
     53 H           9.2731    1.0500   -1.4199 H       1  UNL1        0.0619
     54 H           9.2942    3.1640   -0.2691 H       1  UNL1        0.0633
     55 H           7.3157    3.8261    0.9926 H       1  UNL1        0.0830
     56 H           3.8657    1.7340    0.6168 H       1  UNL1        0.0480
     57 H           4.0891    0.4480    1.8018 H       1  UNL1        0.0480
     58 H           1.8232    0.2951    0.9929 H       1  UNL1        0.0480
     59 H           2.3670    0.3463   -0.6724 H       1  UNL1        0.0480
@<TRIPOS>BOND
     1     1     2    2
     2     2     3    1
     3     2    21   am
     4     3     4   ar
     5     3    20   ar
     6     4     5   ar
     7     5     6   ar
     8     6     7   ar
     9     7     8    1
    10     7    20   ar
    11     8     9    1
    12     9    10   ar
    13     9    15   ar
    14    10    11   ar
    15    11    12   ar
    16    12    13    2
    17    12    14   ar
    18    14    15   ar
    19    14    19    1
    20    15    16    1
    21    16    17    1
    22    17    18    1
    23    18    19    1
    24    21    22    1
    25    21    32    1
    26    22    23    1
    27    23    24    1
    28    24    25    1
    29    24    31    1
    30    25    26   ar
    31    25    30   ar
    32    26    27   ar
    33    27    28   ar
    34    28    29   ar
    35    29    30   ar
    36    31    32    1
    37     4    33    1
    38     5    34    1
    39     6    35    1
    40     8    36    1
    41     8    37    1
    42    11    38    1
    43    16    39    1
    44    16    40    1
    45    17    41    1
    46    17    42    1
    47    18    43    1
    48    18    44    1
    49    19    45    1
    50    19    46    1
    51    20    47    1
    52    22    48    1
    53    22    49    1
    54    23    50    1
    55    23    51    1
    56    26    52    1
    57    27    53    1
    58    28    54    1
    59    29    55    1
    60    31    56    1
    61    31    57    1
    62    32    58    1
    63    32    59    1
@<TRIPOS>MOLECULE
../data/bude_mols_rdkit_confs2/molecule_98.pdb
 59 63 0 0 0
SMALL
GASTEIGER

@<TRIPOS>ATOM
      1  O1         0.9480    2.1820   -0.0780 O.2     1  UNL1       -0.2700
      2  C1         1.2360    0.8870   -0.0880 C.2     1  UNL1        0.2467
      3  C2         0.2140    0.0110    0.4280 C.ar    1  UNL1        0.0372
      4  C3         0.2460   -1.3480    0.5360 C.ar    1  UNL1       -0.0496
      5  C4        -0.8190   -2.1040    1.0580 C.ar    1  UNL1       -0.0608
      6  C5        -1.9640   -1.4900    1.4920 C.ar    1  UNL1       -0.0582
      7  C6        -2.0400   -0.1220    1.4020 C.ar    1  UNL1       -0.0408
      8  C7        -3.2880    0.5810    1.8690 C.3     1  UNL1        0.0168
      9  C8        -4.1790    1.0070    0.8100 C.ar    1  UNL1        0.0693
     10  N1        -4.1560    2.3240    0.4440 N.ar    1  UNL1       -0.1753
     11  N2        -4.8930    2.8520   -0.4850 N.ar    1  UNL1       -0.2427
     12  C9        -5.7650    2.0820   -1.1710 C.ar    1  UNL1        0.2682
     13  O2        -6.4560    2.6150   -2.0540 O.2     1  UNL1       -0.2661
     14  C10       -5.8510    0.7650   -0.8700 C.ar    1  UNL1        0.0232
     15  C11       -5.0580    0.1990    0.1280 C.ar    1  UNL1       -0.0158
     16  C12       -5.1240   -1.2190    0.4600 C.3     1  UNL1       -0.0255
     17  C13       -6.4220   -1.8290    0.0470 C.3     1  UNL1       -0.0487
     18  C14       -7.4800   -0.9110   -0.4550 C.3     1  UNL1       -0.0486
     19  C15       -6.8440   -0.1080   -1.6000 C.3     1  UNL1       -0.0222
     20  C16       -0.9830    0.6000    0.8860 C.ar    1  UNL1       -0.0461
     21  N3         2.4780    0.5470   -0.5910 N.am    1  UNL1       -0.2945
     22  C17        3.3190    1.6810   -1.0510 C.3     1  UNL1        0.0308
     23  C18        4.6700    1.6080   -0.3580 C.3     1  UNL1        0.0294
     24  N4         5.2370    0.3010   -0.6190 N.pl3   1  UNL1       -0.3122
     25  C19        6.5280   -0.0680   -0.1570 C.ar    1  UNL1        0.1213
     26  C20        7.3090    0.8030    0.5920 C.ar    1  UNL1       -0.0217
     27  C21        8.5610    0.4500    1.0420 C.ar    1  UNL1       -0.0571
     28  C22        9.0740   -0.7970    0.7530 C.ar    1  UNL1       -0.0435
     29  C23        8.2850   -1.6480    0.0090 C.ar    1  UNL1        0.0297
     30  N5         7.0670   -1.2710   -0.4140 N.ar    1  UNL1       -0.2403
     31  C24        4.4420   -0.6280   -1.3700 C.3     1  UNL1        0.0294
     32  C25        3.0430   -0.7440   -0.7210 C.3     1  UNL1        0.0308
     33 H           1.0927   -1.8459    0.2194 H       1  UNL1        0.0625
     34 H          -0.7370   -3.1312    1.1146 H       1  UNL1        0.0618
     35 H          -2.7479   -2.0405    1.8760 H       1  UNL1        0.0620
     36 H          -2.9939    1.4468    2.4246 H       1  UNL1        0.0377
     37 H          -3.8335   -0.1309    2.4526 H       1  UNL1        0.0377
     38 H          -4.8164    3.8121   -0.6891 H       1  UNL1        0.1921
     39 H          -5.0101   -1.3320    1.5179 H       1  UNL1        0.0314
     40 H          -4.3400   -1.7196   -0.0688 H       1  UNL1        0.0314
     41 H          -6.8199   -2.3434    0.8967 H       1  UNL1        0.0268
     42 H          -6.1789   -2.4504   -0.7894 H       1  UNL1        0.0268
     43 H          -7.8010   -0.2532    0.3255 H       1  UNL1        0.0269
     44 H          -8.3395   -1.4532   -0.7900 H       1  UNL1        0.0269
     45 H          -6.3527   -0.7525   -2.2987 H       1  UNL1        0.0315
     46 H          -7.5531    0.4440   -2.1809 H       1  UNL1        0.0315
     47 H          -1.0733    1.6266    0.8323 H       1  UNL1        0.0628
     48 H           2.8396    2.6057   -0.8060 H       1  UNL1        0.0480
     49 H           3.4529    1.6251   -2.1111 H       1  UNL1        0.0480
     50 H           4.5455    1.7459    0.6957 H       1  UNL1        0.0480
     51 H           5.3187    2.3749   -0.7267 H       1  UNL1        0.0480
     52 H           6.9405    1.7403    0.8172 H       1  UNL1        0.0652
     53 H           9.1168    1.1197    1.5966 H       1  UNL1        0.0619
     54 H          10.0104   -1.0815    1.0804 H       1  UNL1        0.0633
     55 H           8.6356   -2.5896   -0.2267 H       1  UNL1        0.0830
     56 H           4.9169   -1.5868   -1.3697 H       1  UNL1        0.0480
     57 H           4.3424   -0.2822   -2.3777 H       1  UNL1        0.0480
     58 H           2.4122   -1.3495   -1.3377 H       1  UNL1        0.0480
     59 H           3.1330   -1.1943    0.2454 H       1  UNL1        0.0480
@<TRIPOS>BOND
     1     1     2    2
     2     2     3    1
     3     2    21   am
     4     3     4   ar
     5     3    20   ar
     6     4     5   ar
     7     5     6   ar
     8     6     7   ar
     9     7     8    1
    10     7    20   ar
    11     8     9    1
    12     9    10   ar
    13     9    15   ar
    14    10    11   ar
    15    11    12   ar
    16    12    13    2
    17    12    14   ar
    18    14    15   ar
    19    14    19    1
    20    15    16    1
    21    16    17    1
    22    17    18    1
    23    18    19    1
    24    21    22    1
    25    21    32    1
    26    22    23    1
    27    23    24    1
    28    24    25    1
    29    24    31    1
    30    25    26   ar
    31    25    30   ar
    32    26    27   ar
    33    27    28   ar
    34    28    29   ar
    35    29    30   ar
    36    31    32    1
    37     4    33    1
    38     5    34    1
    39     6    35    1
    40     8    36    1
    41     8    37    1
    42    11    38    1
    43    16    39    1
    44    16    40    1
    45    17    41    1
    46    17    42    1
    47    18    43    1
    48    18    44    1
    49    19    45    1
    50    19    46    1
    51    20    47    1
    52    22    48    1
    53    22    49    1
    54    23    50    1
    55    23    51    1
    56    26    52    1
    57    27    53    1
    58    28    54    1
    59    29    55    1
    60    31    56    1
    61    31    57    1
    62    32    58    1
    63    32    59    1
@<TRIPOS>MOLECULE
../data/bude_mols_rdkit_confs2/molecule_98.pdb
 59 63 0 0 0
SMALL
GASTEIGER

@<TRIPOS>ATOM
      1  O1         0.4170    1.3520    0.9830 O.2     1  UNL1       -0.2700
      2  C1         0.9030    0.3640    0.2760 C.2     1  UNL1        0.2467
      3  C2         0.0320   -0.0650   -0.7880 C.ar    1  UNL1        0.0372
      4  C3         0.2810   -1.0690   -1.6910 C.ar    1  UNL1       -0.0496
      5  C4        -0.6160   -1.4360   -2.7050 C.ar    1  UNL1       -0.0608
      6  C5        -1.8120   -0.7910   -2.8430 C.ar    1  UNL1       -0.0582
      7  C6        -2.0880    0.2220   -1.9490 C.ar    1  UNL1       -0.0408
      8  C7        -3.4130    0.9160   -2.1480 C.3     1  UNL1        0.0168
      9  C8        -4.5450    0.1110   -1.6620 C.ar    1  UNL1        0.0693
     10  N1        -5.2870   -0.5930   -2.5510 N.ar    1  UNL1       -0.1753
     11  N2        -6.3040   -1.3610   -2.2040 N.ar    1  UNL1       -0.2427
     12  C9        -6.6660   -1.4890   -0.9160 C.ar    1  UNL1        0.2682
     13  O2        -7.6500   -2.2320   -0.5780 O.2     1  UNL1       -0.2661
     14  C10       -5.9370   -0.7870    0.0290 C.ar    1  UNL1        0.0232
     15  C11       -4.8610    0.0260   -0.3460 C.ar    1  UNL1       -0.0158
     16  C12       -4.1020    0.7880    0.6770 C.3     1  UNL1       -0.0255
     17  C13       -5.0960    1.1270    1.7980 C.3     1  UNL1       -0.0487
     18  C14       -5.4960   -0.2240    2.4040 C.3     1  UNL1       -0.0486
     19  C15       -6.3690   -0.9690    1.4370 C.3     1  UNL1       -0.0222
     20  C16       -1.2090    0.5780   -0.9590 C.ar    1  UNL1       -0.0461
     21  N3         2.1470   -0.0650    0.6940 N.am    1  UNL1       -0.2945
     22  C17        2.9210   -1.1170    0.1260 C.3     1  UNL1        0.0308
     23  C18        4.2390   -1.2850    0.9280 C.3     1  UNL1        0.0294
     24  N4         4.9230   -0.0410    0.9470 N.pl3   1  UNL1       -0.3122
     25  C19        6.2630    0.1520    0.5780 C.ar    1  UNL1        0.1213
     26  C20        7.0980   -0.8700    0.2250 C.ar    1  UNL1       -0.0217
     27  C21        8.4270   -0.6690   -0.1440 C.ar    1  UNL1       -0.0571
     28  C22        8.9380    0.6290   -0.1570 C.ar    1  UNL1       -0.0435
     29  C23        8.0810    1.6410    0.2010 C.ar    1  UNL1        0.0297
     30  N5         6.8060    1.4000    0.5500 N.ar    1  UNL1       -0.2403
     31  C24        4.1430    1.1250    1.3980 C.3     1  UNL1        0.0294
     32  C25        2.7600    0.6270    1.8460 C.3     1  UNL1        0.0308
     33 H           1.1747   -1.5802   -1.6199 H       1  UNL1        0.0625
     34 H          -0.3699   -2.2006   -3.3529 H       1  UNL1        0.0618
     35 H          -2.4808   -1.0507   -3.5848 H       1  UNL1        0.0620
     36 H          -3.5488    1.1050   -3.1924 H       1  UNL1        0.0377
     37 H          -3.3933    1.8257   -1.5850 H       1  UNL1        0.0377
     38 H          -6.8042   -1.8468   -2.8990 H       1  UNL1        0.1921
     39 H          -3.7063    1.6859    0.2504 H       1  UNL1        0.0314
     40 H          -3.2781    0.2170    1.0512 H       1  UNL1        0.0314
     41 H          -5.9535    1.6282    1.4000 H       1  UNL1        0.0268
     42 H          -4.6671    1.7812    2.5281 H       1  UNL1        0.0268
     43 H          -6.0321   -0.0610    3.3155 H       1  UNL1        0.0269
     44 H          -4.6160   -0.7986    2.6048 H       1  UNL1        0.0269
     45 H          -6.3339   -2.0116    1.6752 H       1  UNL1        0.0315
     46 H          -7.3616   -0.5796    1.5267 H       1  UNL1        0.0315
     47 H          -1.4658    1.3439   -0.3167 H       1  UNL1        0.0628
     48 H           3.1512   -0.8802   -0.8918 H       1  UNL1        0.0480
     49 H           2.3631   -2.0292    0.1641 H       1  UNL1        0.0480
     50 H           4.8529   -2.0261    0.4603 H       1  UNL1        0.0480
     51 H           4.0196   -1.5953    1.9282 H       1  UNL1        0.0480
     52 H           6.7284   -1.8335    0.2318 H       1  UNL1        0.0652
     53 H           9.0246   -1.4692   -0.4040 H       1  UNL1        0.0619
     54 H           9.9164    0.8204   -0.4237 H       1  UNL1        0.0633
     55 H           8.4260    2.6136    0.2020 H       1  UNL1        0.0830
     56 H           4.0348    1.8225    0.5938 H       1  UNL1        0.0480
     57 H           4.6418    1.6150    2.2079 H       1  UNL1        0.0480
     58 H           2.8635   -0.0509    2.6674 H       1  UNL1        0.0480
     59 H           2.1484    1.4449    2.1654 H       1  UNL1        0.0480
@<TRIPOS>BOND
     1     1     2    2
     2     2     3    1
     3     2    21   am
     4     3     4   ar
     5     3    20   ar
     6     4     5   ar
     7     5     6   ar
     8     6     7   ar
     9     7     8    1
    10     7    20   ar
    11     8     9    1
    12     9    10   ar
    13     9    15   ar
    14    10    11   ar
    15    11    12   ar
    16    12    13    2
    17    12    14   ar
    18    14    15   ar
    19    14    19    1
    20    15    16    1
    21    16    17    1
    22    17    18    1
    23    18    19    1
    24    21    22    1
    25    21    32    1
    26    22    23    1
    27    23    24    1
    28    24    25    1
    29    24    31    1
    30    25    26   ar
    31    25    30   ar
    32    26    27   ar
    33    27    28   ar
    34    28    29   ar
    35    29    30   ar
    36    31    32    1
    37     4    33    1
    38     5    34    1
    39     6    35    1
    40     8    36    1
    41     8    37    1
    42    11    38    1
    43    16    39    1
    44    16    40    1
    45    17    41    1
    46    17    42    1
    47    18    43    1
    48    18    44    1
    49    19    45    1
    50    19    46    1
    51    20    47    1
    52    22    48    1
    53    22    49    1
    54    23    50    1
    55    23    51    1
    56    26    52    1
    57    27    53    1
    58    28    54    1
    59    29    55    1
    60    31    56    1
    61    31    57    1
    62    32    58    1
    63    32    59    1
@<TRIPOS>MOLECULE
../data/bude_mols_rdkit_confs2/molecule_98.pdb
 59 63 0 0 0
SMALL
GASTEIGER

@<TRIPOS>ATOM
      1  O1         1.5650   -1.3670    3.6040 O.2     1  UNL1       -0.2700
      2  C1         1.2820   -1.3870    2.3280 C.2     1  UNL1        0.2467
      3  C2         0.0280   -2.0080    2.0090 C.ar    1  UNL1        0.0372
      4  C3        -0.6760   -2.7060    3.0220 C.ar    1  UNL1       -0.0496
      5  C4        -1.8930   -3.2890    2.7690 C.ar    1  UNL1       -0.0608
      6  C5        -2.4790   -3.2220    1.5310 C.ar    1  UNL1       -0.0582
      7  C6        -1.8280   -2.5490    0.5130 C.ar    1  UNL1       -0.0408
      8  C7        -2.4820   -2.5170   -0.8180 C.3     1  UNL1        0.0168
      9  C8        -3.7140   -1.7400   -0.8010 C.ar    1  UNL1        0.0693
     10  N1        -4.8830   -2.4480   -0.7300 N.ar    1  UNL1       -0.1753
     11  N2        -6.0600   -1.8770   -0.6880 N.ar    1  UNL1       -0.2427
     12  C9        -6.2320   -0.5210   -0.7120 C.ar    1  UNL1        0.2682
     13  O2        -7.3430    0.0270   -0.6730 O.2     1  UNL1       -0.2661
     14  C10       -5.1020    0.2430   -0.7830 C.ar    1  UNL1        0.0232
     15  C11       -3.8690   -0.3870   -0.8260 C.ar    1  UNL1       -0.0158
     16  C12       -2.6910    0.4710   -0.9200 C.3     1  UNL1       -0.0255
     17  C13       -2.9000    1.4880   -2.0280 C.3     1  UNL1       -0.0487
     18  C14       -4.2540    2.0910   -2.0260 C.3     1  UNL1       -0.0486
     19  C15       -5.1030    1.7340   -0.8110 C.3     1  UNL1       -0.0222
     20  C16       -0.5920   -1.9620    0.7870 C.ar    1  UNL1       -0.0461
     21  N3         2.2400   -0.8080    1.4950 N.am    1  UNL1       -0.2945
     22  C17        2.2200   -0.7310    0.0630 C.3     1  UNL1        0.0308
     23  C18        3.6390   -0.3570   -0.4370 C.3     1  UNL1        0.0294
     24  N4         4.0850    0.8510    0.1720 N.pl3   1  UNL1       -0.3122
     25  C19        4.9660    1.7170   -0.4970 C.ar    1  UNL1        0.1213
     26  C20        5.2550    2.9740   -0.0440 C.ar    1  UNL1       -0.0217
     27  C21        6.1390    3.7900   -0.7130 C.ar    1  UNL1       -0.0571
     28  C22        6.7410    3.3280   -1.8600 C.ar    1  UNL1       -0.0435
     29  C23        6.4380    2.0430   -2.3140 C.ar    1  UNL1        0.0297
     30  N5         5.5800    1.2890   -1.6390 N.ar    1  UNL1       -0.2403
     31  C24        3.6380    1.1720    1.5210 C.3     1  UNL1        0.0294
     32  C25        3.4000   -0.1880    2.1690 C.3     1  UNL1        0.0308
     33 H          -0.2665   -2.7773    3.9666 H       1  UNL1        0.0625
     34 H          -2.3788   -3.7900    3.5293 H       1  UNL1        0.0618
     35 H          -3.3940   -3.6680    1.3611 H       1  UNL1        0.0620
     36 H          -2.7096   -3.5193   -1.1155 H       1  UNL1        0.0377
     37 H          -1.8076   -2.0530   -1.5070 H       1  UNL1        0.0377
     38 H          -6.8585   -2.4506   -0.6367 H       1  UNL1        0.1921
     39 H          -1.8305   -0.1257   -1.1398 H       1  UNL1        0.0314
     40 H          -2.5414    0.9787    0.0099 H       1  UNL1        0.0314
     41 H          -2.7469    1.0012   -2.9685 H       1  UNL1        0.0268
     42 H          -2.2008    2.2813   -1.8646 H       1  UNL1        0.0268
     43 H          -4.7691    1.7588   -2.9030 H       1  UNL1        0.0269
     44 H          -4.1149    3.1516   -1.9992 H       1  UNL1        0.0269
     45 H          -4.6693    2.1298    0.0835 H       1  UNL1        0.0315
     46 H          -6.0911    2.1401   -0.8703 H       1  UNL1        0.0315
     47 H          -0.1143   -1.4615    0.0213 H       1  UNL1        0.0628
     48 H           1.5206    0.0170   -0.2472 H       1  UNL1        0.0480
     49 H           1.9267   -1.6745   -0.3478 H       1  UNL1        0.0480
     50 H           3.6144   -0.2269   -1.4988 H       1  UNL1        0.0480
     51 H           4.3147   -1.1443   -0.1752 H       1  UNL1        0.0480
     52 H           4.8014    3.3181    0.8167 H       1  UNL1        0.0652
     53 H           6.3474    4.7365   -0.3583 H       1  UNL1        0.0619
     54 H           7.4070    3.9226   -2.3776 H       1  UNL1        0.0633
     55 H           6.8805    1.6804   -3.1729 H       1  UNL1        0.0830
     56 H           2.7339    1.7437    1.4954 H       1  UNL1        0.0480
     57 H           4.3490    1.7637    2.0588 H       1  UNL1        0.0480
     58 H           4.2651   -0.8060    2.0483 H       1  UNL1        0.0480
     59 H           3.2106   -0.0770    3.2162 H       1  UNL1        0.0480
@<TRIPOS>BOND
     1     1     2    2
     2     2     3    1
     3     2    21   am
     4     3     4   ar
     5     3    20   ar
     6     4     5   ar
     7     5     6   ar
     8     6     7   ar
     9     7     8    1
    10     7    20   ar
    11     8     9    1
    12     9    10   ar
    13     9    15   ar
    14    10    11   ar
    15    11    12   ar
    16    12    13    2
    17    12    14   ar
    18    14    15   ar
    19    14    19    1
    20    15    16    1
    21    16    17    1
    22    17    18    1
    23    18    19    1
    24    21    22    1
    25    21    32    1
    26    22    23    1
    27    23    24    1
    28    24    25    1
    29    24    31    1
    30    25    26   ar
    31    25    30   ar
    32    26    27   ar
    33    27    28   ar
    34    28    29   ar
    35    29    30   ar
    36    31    32    1
    37     4    33    1
    38     5    34    1
    39     6    35    1
    40     8    36    1
    41     8    37    1
    42    11    38    1
    43    16    39    1
    44    16    40    1
    45    17    41    1
    46    17    42    1
    47    18    43    1
    48    18    44    1
    49    19    45    1
    50    19    46    1
    51    20    47    1
    52    22    48    1
    53    22    49    1
    54    23    50    1
    55    23    51    1
    56    26    52    1
    57    27    53    1
    58    28    54    1
    59    29    55    1
    60    31    56    1
    61    31    57    1
    62    32    58    1
    63    32    59    1
@<TRIPOS>MOLECULE
../data/bude_mols_rdkit_confs2/molecule_98.pdb
 59 63 0 0 0
SMALL
GASTEIGER

@<TRIPOS>ATOM
      1  O1         2.1500   -3.4580    1.3270 O.2     1  UNL1       -0.2700
      2  C1         1.4750   -2.6970    0.4880 C.2     1  UNL1        0.2467
      3  C2         0.0310   -2.8550    0.5050 C.ar    1  UNL1        0.0372
      4  C3        -0.5290   -3.6930    1.4840 C.ar    1  UNL1       -0.0496
      5  C4        -1.8770   -3.8900    1.5110 C.ar    1  UNL1       -0.0608
      6  C5        -2.7520   -3.3150    0.6290 C.ar    1  UNL1       -0.0582
      7  C6        -2.2340   -2.4850   -0.3460 C.ar    1  UNL1       -0.0408
      8  C7        -3.0470   -1.8520   -1.3760 C.3     1  UNL1        0.0168
      9  C8        -4.0560   -0.8830   -0.9280 C.ar    1  UNL1        0.0693
     10  N1        -5.3610   -1.3100   -0.8030 N.ar    1  UNL1       -0.1753
     11  N2        -6.3300   -0.5180   -0.3880 N.ar    1  UNL1       -0.2427
     12  C9        -6.1210    0.7620   -0.0560 C.ar    1  UNL1        0.2682
     13  O2        -7.0550    1.5310    0.3480 O.2     1  UNL1       -0.2661
     14  C10       -4.8730    1.2730   -0.1450 C.ar    1  UNL1        0.0232
     15  C11       -3.8440    0.4130   -0.5920 C.ar    1  UNL1       -0.0158
     16  C12       -2.4990    1.0270   -0.6920 C.3     1  UNL1       -0.0255
     17  C13       -2.1370    1.7610    0.5760 C.3     1  UNL1       -0.0487
     18  C14       -3.2730    2.5930    1.1040 C.3     1  UNL1       -0.0486
     19  C15       -4.4610    2.6610    0.1740 C.3     1  UNL1       -0.0222
     20  C16       -0.8450   -2.2880   -0.3660 C.ar    1  UNL1       -0.0461
     21  N3         2.2990   -1.8710   -0.2690 N.am    1  UNL1       -0.2945
     22  C17        1.8900   -0.9180   -1.2250 C.3     1  UNL1        0.0308
     23  C18        3.0880   -0.0410   -1.6280 C.3     1  UNL1        0.0294
     24  N4         3.9590    0.2770   -0.5530 N.pl3   1  UNL1       -0.3122
     25  C19        4.6020    1.5540   -0.4500 C.ar    1  UNL1        0.1213
     26  C20        5.4650    1.8540    0.5830 C.ar    1  UNL1       -0.0217
     27  C21        6.0810    3.0790    0.6780 C.ar    1  UNL1       -0.0571
     28  C22        5.8570    4.0540   -0.2620 C.ar    1  UNL1       -0.0435
     29  C23        4.9770    3.7360   -1.3040 C.ar    1  UNL1        0.0297
     30  N5         4.3980    2.5240   -1.3550 N.ar    1  UNL1       -0.2403
     31  C24        4.2450   -0.6850    0.4940 C.3     1  UNL1        0.0294
     32  C25        3.7550   -2.0270   -0.0600 C.3     1  UNL1        0.0308
     33 H           0.0772   -4.1567    2.1787 H       1  UNL1        0.0625
     34 H          -2.2617   -4.5103    2.2406 H       1  UNL1        0.0618
     35 H          -3.7662   -3.4959    0.6906 H       1  UNL1        0.0620
     36 H          -3.5581   -2.6283   -1.9061 H       1  UNL1        0.0377
     37 H          -2.3571   -1.2829   -1.9635 H       1  UNL1        0.0377
     38 H          -7.2422   -0.8819   -0.3197 H       1  UNL1        0.1921
     39 H          -2.4908    1.7176   -1.5092 H       1  UNL1        0.0314
     40 H          -1.7823    0.2480   -0.8482 H       1  UNL1        0.0314
     41 H          -1.3055    2.4037    0.3750 H       1  UNL1        0.0268
     42 H          -1.8977    1.0287    1.3186 H       1  UNL1        0.0268
     43 H          -2.9151    3.5880    1.2676 H       1  UNL1        0.0269
     44 H          -3.6091    2.1257    2.0060 H       1  UNL1        0.0269
     45 H          -5.2668    3.1783    0.6515 H       1  UNL1        0.0315
     46 H          -4.2027    3.1872   -0.7212 H       1  UNL1        0.0315
     47 H          -0.4604   -1.6673   -1.0952 H       1  UNL1        0.0628
     48 H           1.1224   -0.3011   -0.8065 H       1  UNL1        0.0480
     49 H           1.5134   -1.4228   -2.0900 H       1  UNL1        0.0480
     50 H           2.7127    0.8731   -2.0385 H       1  UNL1        0.0480
     51 H           3.6610   -0.6054   -2.3338 H       1  UNL1        0.0480
     52 H           5.6533    1.1398    1.3038 H       1  UNL1        0.0652
     53 H           6.7200    3.2682    1.4660 H       1  UNL1        0.0619
     54 H           6.3150    4.9769   -0.2036 H       1  UNL1        0.0633
     55 H           4.7723    4.4347   -2.0354 H       1  UNL1        0.0830
     56 H           3.7186   -0.4331    1.3909 H       1  UNL1        0.0480
     57 H           5.2845   -0.7086    0.7467 H       1  UNL1        0.0480
     58 H           4.2426   -2.2477   -0.9865 H       1  UNL1        0.0480
     59 H           3.9719   -2.8320    0.6107 H       1  UNL1        0.0480
@<TRIPOS>BOND
     1     1     2    2
     2     2     3    1
     3     2    21   am
     4     3     4   ar
     5     3    20   ar
     6     4     5   ar
     7     5     6   ar
     8     6     7   ar
     9     7     8    1
    10     7    20   ar
    11     8     9    1
    12     9    10   ar
    13     9    15   ar
    14    10    11   ar
    15    11    12   ar
    16    12    13    2
    17    12    14   ar
    18    14    15   ar
    19    14    19    1
    20    15    16    1
    21    16    17    1
    22    17    18    1
    23    18    19    1
    24    21    22    1
    25    21    32    1
    26    22    23    1
    27    23    24    1
    28    24    25    1
    29    24    31    1
    30    25    26   ar
    31    25    30   ar
    32    26    27   ar
    33    27    28   ar
    34    28    29   ar
    35    29    30   ar
    36    31    32    1
    37     4    33    1
    38     5    34    1
    39     6    35    1
    40     8    36    1
    41     8    37    1
    42    11    38    1
    43    16    39    1
    44    16    40    1
    45    17    41    1
    46    17    42    1
    47    18    43    1
    48    18    44    1
    49    19    45    1
    50    19    46    1
    51    20    47    1
    52    22    48    1
    53    22    49    1
    54    23    50    1
    55    23    51    1
    56    26    52    1
    57    27    53    1
    58    28    54    1
    59    29    55    1
    60    31    56    1
    61    31    57    1
    62    32    58    1
    63    32    59    1
@<TRIPOS>MOLECULE
../data/bude_mols_rdkit_confs2/molecule_98.pdb
 59 63 0 0 0
SMALL
GASTEIGER

@<TRIPOS>ATOM
      1  O1         1.2390    3.0280    2.0970 O.2     1  UNL1       -0.2700
      2  C1         0.9860    1.9250    1.4100 C.2     1  UNL1        0.2467
      3  C2        -0.0310    1.0570    1.9320 C.ar    1  UNL1        0.0372
      4  C3        -0.6220    1.4270    3.1520 C.ar    1  UNL1       -0.0496
      5  C4        -1.6160    0.6870    3.7540 C.ar    1  UNL1       -0.0608
      6  C5        -2.0570   -0.4650    3.1440 C.ar    1  UNL1       -0.0582
      7  C6        -1.5170   -0.8780    1.9480 C.ar    1  UNL1       -0.0408
      8  C7        -2.0320   -2.1360    1.3800 C.3     1  UNL1        0.0168
      9  C8        -3.4320   -2.0660    0.9170 C.ar    1  UNL1        0.0693
     10  N1        -4.4540   -2.5240    1.7070 N.ar    1  UNL1       -0.1753
     11  N2        -5.7200   -2.4590    1.3520 N.ar    1  UNL1       -0.2427
     12  C9        -6.1270   -1.9370    0.1820 C.ar    1  UNL1        0.2682
     13  O2        -7.3710   -1.9060   -0.0960 O.2     1  UNL1       -0.2661
     14  C10       -5.1670   -1.4580   -0.6650 C.ar    1  UNL1        0.0232
     15  C11       -3.8120   -1.5300   -0.2820 C.ar    1  UNL1       -0.0158
     16  C12       -2.8800   -1.0010   -1.3040 C.3     1  UNL1       -0.0255
     17  C13       -3.4400    0.3760   -1.6850 C.3     1  UNL1       -0.0487
     18  C14       -4.7420    0.2850   -2.4110 C.3     1  UNL1       -0.0486
     19  C15       -5.5600   -0.8740   -1.9570 C.3     1  UNL1       -0.0222
     20  C16       -0.5210   -0.0950    1.3900 C.ar    1  UNL1       -0.0461
     21  N3         1.7960    1.8330    0.2740 N.am    1  UNL1       -0.2945
     22  C17        1.7590    0.7460   -0.6510 C.3     1  UNL1        0.0308
     23  C18        2.8730    0.9240   -1.7120 C.3     1  UNL1        0.0294
     24  N4         4.1240    1.2130   -1.0180 N.pl3   1  UNL1       -0.3122
     25  C19        5.2320    0.3380   -1.0730 C.ar    1  UNL1        0.1213
     26  C20        6.4290    0.5790   -0.4380 C.ar    1  UNL1       -0.0217
     27  C21        7.4960   -0.3250   -0.5240 C.ar    1  UNL1       -0.0571
     28  C22        7.3590   -1.4850   -1.2580 C.ar    1  UNL1       -0.0435
     29  C23        6.1420   -1.6820   -1.8770 C.ar    1  UNL1        0.0297
     30  N5         5.1200   -0.8060   -1.7880 N.ar    1  UNL1       -0.2403
     31  C24        4.1240    2.4660   -0.2720 C.3     1  UNL1        0.0294
     32  C25        2.7440    2.9520    0.0310 C.3     1  UNL1        0.0308
     33 H          -0.2977    2.2895    3.6167 H       1  UNL1        0.0625
     34 H          -2.0247    0.9927    4.6510 H       1  UNL1        0.0618
     35 H          -2.8010   -1.0253    3.5886 H       1  UNL1        0.0620
     36 H          -1.9652   -2.8949    2.1314 H       1  UNL1        0.0377
     37 H          -1.4349   -2.3498    0.5182 H       1  UNL1        0.0377
     38 H          -6.4001   -2.8088    1.9720 H       1  UNL1        0.1921
     39 H          -2.8547   -1.6451   -2.1580 H       1  UNL1        0.0314
     40 H          -1.8773   -0.9370   -0.9360 H       1  UNL1        0.0314
     41 H          -2.7308    0.8724   -2.3139 H       1  UNL1        0.0268
     42 H          -3.6112    0.9186   -0.7788 H       1  UNL1        0.0268
     43 H          -4.5462    0.1796   -3.4576 H       1  UNL1        0.0269
     44 H          -5.2952    1.1777   -2.2061 H       1  UNL1        0.0269
     45 H          -6.5763   -0.5491   -1.8766 H       1  UNL1        0.0315
     46 H          -5.4100   -1.6433   -2.6854 H       1  UNL1        0.0315
     47 H          -0.1173   -0.4075    0.4931 H       1  UNL1        0.0628
     48 H           0.8057    0.7247   -1.1365 H       1  UNL1        0.0480
     49 H           1.9152   -0.1723   -0.1245 H       1  UNL1        0.0480
     50 H           2.6252    1.7352   -2.3643 H       1  UNL1        0.0480
     51 H           2.9723    0.0328   -2.2957 H       1  UNL1        0.0480
     52 H           6.5431    1.4440    0.1132 H       1  UNL1        0.0652
     53 H           8.3840   -0.1232   -0.0385 H       1  UNL1        0.0619
     54 H           8.1269   -2.1697   -1.3398 H       1  UNL1        0.0633
     55 H           6.0071   -2.5400   -2.4344 H       1  UNL1        0.0830
     56 H           4.6303    3.2099   -0.8509 H       1  UNL1        0.0480
     57 H           4.6182    2.2890    0.6604 H       1  UNL1        0.0480
     58 H           2.7799    3.5692    0.9043 H       1  UNL1        0.0480
     59 H           2.3945    3.5003   -0.8188 H       1  UNL1        0.0480
@<TRIPOS>BOND
     1     1     2    2
     2     2     3    1
     3     2    21   am
     4     3     4   ar
     5     3    20   ar
     6     4     5   ar
     7     5     6   ar
     8     6     7   ar
     9     7     8    1
    10     7    20   ar
    11     8     9    1
    12     9    10   ar
    13     9    15   ar
    14    10    11   ar
    15    11    12   ar
    16    12    13    2
    17    12    14   ar
    18    14    15   ar
    19    14    19    1
    20    15    16    1
    21    16    17    1
    22    17    18    1
    23    18    19    1
    24    21    22    1
    25    21    32    1
    26    22    23    1
    27    23    24    1
    28    24    25    1
    29    24    31    1
    30    25    26   ar
    31    25    30   ar
    32    26    27   ar
    33    27    28   ar
    34    28    29   ar
    35    29    30   ar
    36    31    32    1
    37     4    33    1
    38     5    34    1
    39     6    35    1
    40     8    36    1
    41     8    37    1
    42    11    38    1
    43    16    39    1
    44    16    40    1
    45    17    41    1
    46    17    42    1
    47    18    43    1
    48    18    44    1
    49    19    45    1
    50    19    46    1
    51    20    47    1
    52    22    48    1
    53    22    49    1
    54    23    50    1
    55    23    51    1
    56    26    52    1
    57    27    53    1
    58    28    54    1
    59    29    55    1
    60    31    56    1
    61    31    57    1
    62    32    58    1
    63    32    59    1
@<TRIPOS>MOLECULE
../data/bude_mols_rdkit_confs2/molecule_98.pdb
 59 63 0 0 0
SMALL
GASTEIGER

@<TRIPOS>ATOM
      1  O1         0.7130    2.3400   -0.1510 O.2     1  UNL1       -0.2700
      2  C1         1.0420    1.1220    0.1940 C.2     1  UNL1        0.2467
      3  C2         0.0500    0.4260    0.9410 C.ar    1  UNL1        0.0372
      4  C3         0.1690   -0.8300    1.4710 C.ar    1  UNL1       -0.0496
      5  C4        -0.8530   -1.4550    2.1820 C.ar    1  UNL1       -0.0608
      6  C5        -2.0390   -0.8380    2.3890 C.ar    1  UNL1       -0.0582
      7  C6        -2.2260    0.4200    1.8860 C.ar    1  UNL1       -0.0408
      8  C7        -3.4770    1.2250    2.0130 C.3     1  UNL1        0.0168
      9  C8        -4.3320    1.1980    0.8330 C.ar    1  UNL1        0.0693
     10  N1        -4.2510    2.1940   -0.0970 N.ar    1  UNL1       -0.1753
     11  N2        -4.9810    2.1760   -1.2080 N.ar    1  UNL1       -0.2427
     12  C9        -5.8430    1.1880   -1.4980 C.ar    1  UNL1        0.2682
     13  O2        -6.5420    1.1590   -2.5520 O.2     1  UNL1       -0.2661
     14  C10       -5.9760    0.1520   -0.6040 C.ar    1  UNL1        0.0232
     15  C11       -5.2020    0.1850    0.5640 C.ar    1  UNL1       -0.0158
     16  C12       -5.4720   -0.9780    1.4640 C.3     1  UNL1       -0.0255
     17  C13       -5.2720   -2.2390    0.6920 C.3     1  UNL1       -0.0487
     18  C14       -6.0130   -2.2570   -0.6200 C.3     1  UNL1       -0.0486
     19  C15       -6.8690   -1.0180   -0.7790 C.3     1  UNL1       -0.0222
     20  C16       -1.2090    1.0280    1.1850 C.ar    1  UNL1       -0.0461
     21  N3         2.2990    0.6980   -0.2210 N.am    1  UNL1       -0.2945
     22  C17        3.1410    1.6770   -0.9910 C.3     1  UNL1        0.0308
     23  C18        4.4310    1.7740   -0.2170 C.3     1  UNL1        0.0294
     24  N4         5.0580    0.4540   -0.3110 N.pl3   1  UNL1       -0.3122
     25  C19        6.4100    0.2750    0.0650 C.ar    1  UNL1        0.1213
     26  C20        7.1560   -0.8290   -0.2570 C.ar    1  UNL1       -0.0217
     27  C21        8.4830   -0.9760    0.1450 C.ar    1  UNL1       -0.0571
     28  C22        9.0850    0.0060    0.8890 C.ar    1  UNL1       -0.0435
     29  C23        8.3090    1.1080    1.1990 C.ar    1  UNL1        0.0297
     30  N5         7.0360    1.2350    0.8050 N.ar    1  UNL1       -0.2403
     31  C24        4.2730   -0.6490   -0.7740 C.3     1  UNL1        0.0294
     32  C25        2.9180   -0.5750   -0.0270 C.3     1  UNL1        0.0308
     33 H           1.0574   -1.3380    1.3378 H       1  UNL1        0.0625
     34 H          -0.7029   -2.4046    2.5571 H       1  UNL1        0.0618
     35 H          -2.7900   -1.3087    2.9176 H       1  UNL1        0.0620
     36 H          -3.2030    2.2414    2.2047 H       1  UNL1        0.0377
     37 H          -4.0419    0.7882    2.8098 H       1  UNL1        0.0377
     38 H          -4.8854    2.9196   -1.8461 H       1  UNL1        0.1921
     39 H          -6.4797   -0.9305    1.8207 H       1  UNL1        0.0314
     40 H          -4.8048   -0.9536    2.3002 H       1  UNL1        0.0314
     41 H          -5.6145   -3.0597    1.2870 H       1  UNL1        0.0268
     42 H          -4.2282   -2.3121    0.4681 H       1  UNL1        0.0268
     43 H          -6.6410   -3.1226   -0.6549 H       1  UNL1        0.0269
     44 H          -5.2969   -2.2799   -1.4147 H       1  UNL1        0.0269
     45 H          -7.3116   -0.9998   -1.7530 H       1  UNL1        0.0315
     46 H          -7.6598   -1.0056   -0.0583 H       1  UNL1        0.0315
     47 H          -1.3733    1.9776    0.8158 H       1  UNL1        0.0628
     48 H           2.6589    2.6310   -1.0398 H       1  UNL1        0.0480
     49 H           3.3007    1.3628   -2.0013 H       1  UNL1        0.0480
     50 H           4.2336    2.0199    0.8055 H       1  UNL1        0.0480
     51 H           5.0674    2.5392   -0.6100 H       1  UNL1        0.0480
     52 H           6.7199   -1.5782   -0.8170 H       1  UNL1        0.0652
     53 H           9.0114   -1.8228   -0.1171 H       1  UNL1        0.0619
     54 H          10.0655   -0.0731    1.2012 H       1  UNL1        0.0633
     55 H           8.7300    1.8659    1.7588 H       1  UNL1        0.0830
     56 H           4.7667   -1.5720   -0.5520 H       1  UNL1        0.0480
     57 H           4.1316   -0.6031   -1.8336 H       1  UNL1        0.0480
     58 H           2.2699   -1.3404   -0.3999 H       1  UNL1        0.0480
     59 H           3.0957   -0.7134    1.0190 H       1  UNL1        0.0480
@<TRIPOS>BOND
     1     1     2    2
     2     2     3    1
     3     2    21   am
     4     3     4   ar
     5     3    20   ar
     6     4     5   ar
     7     5     6   ar
     8     6     7   ar
     9     7     8    1
    10     7    20   ar
    11     8     9    1
    12     9    10   ar
    13     9    15   ar
    14    10    11   ar
    15    11    12   ar
    16    12    13    2
    17    12    14   ar
    18    14    15   ar
    19    14    19    1
    20    15    16    1
    21    16    17    1
    22    17    18    1
    23    18    19    1
    24    21    22    1
    25    21    32    1
    26    22    23    1
    27    23    24    1
    28    24    25    1
    29    24    31    1
    30    25    26   ar
    31    25    30   ar
    32    26    27   ar
    33    27    28   ar
    34    28    29   ar
    35    29    30   ar
    36    31    32    1
    37     4    33    1
    38     5    34    1
    39     6    35    1
    40     8    36    1
    41     8    37    1
    42    11    38    1
    43    16    39    1
    44    16    40    1
    45    17    41    1
    46    17    42    1
    47    18    43    1
    48    18    44    1
    49    19    45    1
    50    19    46    1
    51    20    47    1
    52    22    48    1
    53    22    49    1
    54    23    50    1
    55    23    51    1
    56    26    52    1
    57    27    53    1
    58    28    54    1
    59    29    55    1
    60    31    56    1
    61    31    57    1
    62    32    58    1
    63    32    59    1
@<TRIPOS>MOLECULE
../data/bude_mols_rdkit_confs2/molecule_98.pdb
 59 63 0 0 0
SMALL
GASTEIGER

@<TRIPOS>ATOM
      1  O1         0.7840   -0.0430   -2.1810 O.2     1  UNL1       -0.2700
      2  C1         1.1280   -0.2480   -0.9200 C.2     1  UNL1        0.2467
      3  C2         0.0880   -0.9170   -0.1640 C.ar    1  UNL1        0.0372
      4  C3         0.2860   -1.3240    1.1410 C.ar    1  UNL1       -0.0496
      5  C4        -0.7400   -1.9340    1.8500 C.ar    1  UNL1       -0.0608
      6  C5        -1.9620   -2.1250    1.2210 C.ar    1  UNL1       -0.0582
      7  C6        -2.1670   -1.7260   -0.0680 C.ar    1  UNL1       -0.0408
      8  C7        -3.4550   -1.9010   -0.7290 C.3     1  UNL1        0.0168
      9  C8        -4.2190   -0.6780   -0.9890 C.ar    1  UNL1        0.0693
     10  N1        -4.1650   -0.0900   -2.2270 N.ar    1  UNL1       -0.1753
     11  N2        -4.7890    1.0240   -2.5210 N.ar    1  UNL1       -0.2427
     12  C9        -5.5450    1.7020   -1.6380 C.ar    1  UNL1        0.2682
     13  O2        -6.1410    2.7640   -1.9120 O.2     1  UNL1       -0.2661
     14  C10       -5.6490    1.1740   -0.3770 C.ar    1  UNL1        0.0232
     15  C11       -4.9830   -0.0160   -0.0630 C.ar    1  UNL1       -0.0158
     16  C12       -5.1840   -0.5200    1.2950 C.3     1  UNL1       -0.0255
     17  C13       -6.6770   -0.5200    1.5830 C.3     1  UNL1       -0.0487
     18  C14       -7.2460    0.8460    1.4890 C.3     1  UNL1       -0.0486
     19  C15       -6.4340    1.8180    0.7060 C.3     1  UNL1       -0.0222
     20  C16       -1.1510   -1.1220   -0.7690 C.ar    1  UNL1       -0.0461
     21  N3         2.3820    0.2040   -0.5660 N.am    1  UNL1       -0.2945
     22  C17        3.0240    0.1570    0.6900 C.3     1  UNL1        0.0308
     23  C18        4.3710    0.9340    0.6900 C.3     1  UNL1        0.0294
     24  N4         5.1620    0.4360   -0.4030 N.pl3   1  UNL1       -0.3122
     25  C19        6.5830    0.4020   -0.3090 C.ar    1  UNL1        0.1213
     26  C20        7.2250    0.9340    0.7670 C.ar    1  UNL1       -0.0217
     27  C21        8.6130    0.8710    0.8110 C.ar    1  UNL1       -0.0571
     28  C22        9.2530    0.2700   -0.2440 C.ar    1  UNL1       -0.0435
     29  C23        8.6000   -0.2610   -1.3210 C.ar    1  UNL1        0.0297
     30  N5         7.2590   -0.1850   -1.3340 N.ar    1  UNL1       -0.2403
     31  C24        4.4760   -0.0260   -1.6200 C.3     1  UNL1        0.0294
     32  C25        3.1930    0.8240   -1.6530 C.3     1  UNL1        0.0308
     33 H           1.2021   -1.1737    1.5917 H       1  UNL1        0.0625
     34 H          -0.5967   -2.2393    2.8253 H       1  UNL1        0.0618
     35 H          -2.7315   -2.5780    1.7384 H       1  UNL1        0.0620
     36 H          -4.0553   -2.5362   -0.1117 H       1  UNL1        0.0377
     37 H          -3.2300   -2.3089   -1.6923 H       1  UNL1        0.0377
     38 H          -4.7003    1.3829   -3.4334 H       1  UNL1        0.1921
     39 H          -4.6796    0.1128    1.9950 H       1  UNL1        0.0314
     40 H          -4.7892   -1.5104    1.3849 H       1  UNL1        0.0314
     41 H          -6.8411   -0.8983    2.5703 H       1  UNL1        0.0268
     42 H          -7.1605   -1.1371    0.8548 H       1  UNL1        0.0268
     43 H          -7.3537    1.2289    2.4823 H       1  UNL1        0.0269
     44 H          -8.1745    0.7458    0.9668 H       1  UNL1        0.0269
     45 H          -7.0926    2.5387    0.2682 H       1  UNL1        0.0315
     46 H          -5.7385    2.2725    1.3803 H       1  UNL1        0.0315
     47 H          -1.3053   -0.8201   -1.7437 H       1  UNL1        0.0628
     48 H           3.2158   -0.8653    0.9410 H       1  UNL1        0.0480
     49 H           2.3779    0.6191    1.4069 H       1  UNL1        0.0480
     50 H           4.8847    0.7732    1.6148 H       1  UNL1        0.0480
     51 H           4.1983    1.9842    0.5801 H       1  UNL1        0.0480
     52 H           6.6928    1.3746    1.5336 H       1  UNL1        0.0652
     53 H           9.1420    1.2612    1.6065 H       1  UNL1        0.0619
     54 H          10.2834    0.2161   -0.2230 H       1  UNL1        0.0633
     55 H           9.1182   -0.7040   -2.0957 H       1  UNL1        0.0830
     56 H           4.2428   -1.0683   -1.5555 H       1  UNL1        0.0480
     57 H           5.0719    0.0839   -2.5019 H       1  UNL1        0.0480
     58 H           3.4024    1.8522   -1.4436 H       1  UNL1        0.0480
     59 H           2.7047    0.8311   -2.6050 H       1  UNL1        0.0480
@<TRIPOS>BOND
     1     1     2    2
     2     2     3    1
     3     2    21   am
     4     3     4   ar
     5     3    20   ar
     6     4     5   ar
     7     5     6   ar
     8     6     7   ar
     9     7     8    1
    10     7    20   ar
    11     8     9    1
    12     9    10   ar
    13     9    15   ar
    14    10    11   ar
    15    11    12   ar
    16    12    13    2
    17    12    14   ar
    18    14    15   ar
    19    14    19    1
    20    15    16    1
    21    16    17    1
    22    17    18    1
    23    18    19    1
    24    21    22    1
    25    21    32    1
    26    22    23    1
    27    23    24    1
    28    24    25    1
    29    24    31    1
    30    25    26   ar
    31    25    30   ar
    32    26    27   ar
    33    27    28   ar
    34    28    29   ar
    35    29    30   ar
    36    31    32    1
    37     4    33    1
    38     5    34    1
    39     6    35    1
    40     8    36    1
    41     8    37    1
    42    11    38    1
    43    16    39    1
    44    16    40    1
    45    17    41    1
    46    17    42    1
    47    18    43    1
    48    18    44    1
    49    19    45    1
    50    19    46    1
    51    20    47    1
    52    22    48    1
    53    22    49    1
    54    23    50    1
    55    23    51    1
    56    26    52    1
    57    27    53    1
    58    28    54    1
    59    29    55    1
    60    31    56    1
    61    31    57    1
    62    32    58    1
    63    32    59    1
