@<TRIPOS>MOLECULE
../data/bude_mols_rdkit_confs2/molecule_87.pdb
 48 50 0 0 0
SMALL
GASTEIGER

@<TRIPOS>ATOM
      1  C1        -7.5240    0.0530    0.3580 C.3     1  UNL1       -0.0624
      2  C2        -6.3770    0.2680   -0.5740 C.3     1  UNL1       -0.0421
      3  C3        -5.8910    1.7020   -0.6510 C.3     1  UNL1       -0.0487
      4  C4        -4.4080    1.6630   -0.1950 C.3     1  UNL1       -0.0301
      5  C5        -4.5130    0.5170    0.7870 C.3     1  UNL1        0.0822
      6  S1        -3.0480    0.0430    1.5680 S.O2    1  UNL1       -0.0002
      7  O1        -2.5670    1.2430    2.3840 O.2     1  UNL1       -0.1691
      8  O2        -3.3520   -1.0200    2.5920 O.2     1  UNL1       -0.1691
      9  C6        -1.7240   -0.4000    0.5460 C.ar    1  UNL1        0.0892
     10  C7        -1.8560   -1.5220   -0.2430 C.ar    1  UNL1       -0.0368
     11  C8        -0.7900   -1.9520   -0.9990 C.ar    1  UNL1       -0.0592
     12  C9         0.4140   -1.2730   -0.9760 C.ar    1  UNL1       -0.0495
     13  C10        0.5740   -0.1340   -0.1830 C.ar    1  UNL1        0.0400
     14  C11        1.8740    0.5230   -0.1210 C.2     1  UNL1        0.2602
     15  O3         2.0190    1.7400    0.0150 O.2     1  UNL1       -0.2687
     16  N1         3.0670   -0.2970   -0.2220 N.am    1  UNL1       -0.2301
     17  N2         4.3580    0.2130   -0.1790 N.am    1  UNL1       -0.2289
     18  C12        5.4380   -0.6990   -0.0390 C.2     1  UNL1        0.2784
     19  O4         5.1720   -1.9450    0.0440 O.2     1  UNL1       -0.2670
     20  C13        6.8310   -0.2620    0.0130 C.ar    1  UNL1        0.1268
     21  C14        7.8460   -1.1810    0.2320 C.ar    1  UNL1       -0.0311
     22  C15        9.1750   -0.8220    0.2710 C.ar    1  UNL1       -0.0582
     23  C16        9.5280    0.5060    0.0860 C.ar    1  UNL1       -0.0436
     24  C17        8.5020    1.4060   -0.1300 C.ar    1  UNL1        0.0284
     25  N3         7.2100    1.0070   -0.1600 N.ar    1  UNL1       -0.2503
     26  C18       -0.4990    0.2800    0.5610 C.ar    1  UNL1       -0.0247
     27  C19       -5.1450   -0.5320   -0.1100 C.3     1  UNL1       -0.0277
     28 H          -8.3688    0.6158    0.0197 H       1  UNL1        0.0232
     29 H          -7.2505    0.3762    1.3407 H       1  UNL1        0.0232
     30 H          -7.7744   -0.9870    0.3814 H       1  UNL1        0.0232
     31 H          -6.7600   -0.0392   -1.5247 H       1  UNL1        0.0299
     32 H          -6.4659    2.3270   -0.0001 H       1  UNL1        0.0268
     33 H          -5.9921    2.1027   -1.6380 H       1  UNL1        0.0268
     34 H          -4.1063    2.5742    0.2778 H       1  UNL1        0.0284
     35 H          -3.6828    1.5466   -0.9731 H       1  UNL1        0.0284
     36 H          -5.0740    0.7497    1.6679 H       1  UNL1        0.0540
     37 H          -2.7499   -2.0371   -0.2667 H       1  UNL1        0.0636
     38 H          -0.8904   -2.7917   -1.5905 H       1  UNL1        0.0618
     39 H           1.2022   -1.6108   -1.5502 H       1  UNL1        0.0625
     40 H           2.9549   -1.2695   -0.3269 H       1  UNL1        0.1731
     41 H           4.5205    1.1818   -0.2439 H       1  UNL1        0.1732
     42 H           7.5958   -2.1725    0.3712 H       1  UNL1        0.0640
     43 H           9.9021   -1.5355    0.4365 H       1  UNL1        0.0619
     44 H          10.5142    0.8091    0.1086 H       1  UNL1        0.0633
     45 H           8.7262    2.4034   -0.2714 H       1  UNL1        0.0830
     46 H          -0.4020    1.1204    1.1520 H       1  UNL1        0.0644
     47 H          -4.5079   -0.7993   -0.9270 H       1  UNL1        0.0286
     48 H          -5.3528   -1.4733    0.3544 H       1  UNL1        0.0286
@<TRIPOS>BOND
     1     1     2    1
     2     2     3    1
     3     2    27    1
     4     3     4    1
     5     4     5    1
     6     5     6    1
     7     5    27    1
     8     6     7    2
     9     6     8    2
    10     6     9    1
    11     9    10   ar
    12     9    26   ar
    13    10    11   ar
    14    11    12   ar
    15    12    13   ar
    16    13    14    1
    17    13    26   ar
    18    14    15    2
    19    14    16   am
    20    16    17    1
    21    17    18   am
    22    18    19    2
    23    18    20    1
    24    20    21   ar
    25    20    25   ar
    26    21    22   ar
    27    22    23   ar
    28    23    24   ar
    29    24    25   ar
    30     1    28    1
    31     1    29    1
    32     1    30    1
    33     2    31    1
    34     3    32    1
    35     3    33    1
    36     4    34    1
    37     4    35    1
    38     5    36    1
    39    10    37    1
    40    11    38    1
    41    12    39    1
    42    16    40    1
    43    17    41    1
    44    21    42    1
    45    22    43    1
    46    23    44    1
    47    24    45    1
    48    26    46    1
    49    27    47    1
    50    27    48    1
@<TRIPOS>MOLECULE
../data/bude_mols_rdkit_confs2/molecule_87.pdb
 48 50 0 0 0
SMALL
GASTEIGER

@<TRIPOS>ATOM
      1  C1        -6.7890    1.2650    1.4050 C.3     1  UNL1       -0.0624
      2  C2        -6.1670    0.0420    0.7470 C.3     1  UNL1       -0.0421
      3  C3        -5.6930    0.4100   -0.6140 C.3     1  UNL1       -0.0487
      4  C4        -4.2680    0.8290   -0.4110 C.3     1  UNL1       -0.0301
      5  C5        -3.7660   -0.0890    0.7100 C.3     1  UNL1        0.0822
      6  S1        -3.1160   -1.6010    0.0010 S.O2    1  UNL1       -0.0002
      7  O1        -2.6830   -2.5390    1.0840 O.2     1  UNL1       -0.1691
      8  O2        -4.1770   -2.2790   -0.8300 O.2     1  UNL1       -0.1691
      9  C6        -1.7730   -1.1940   -1.0230 C.ar    1  UNL1        0.0892
     10  C7        -1.8760   -1.0330   -2.3820 C.ar    1  UNL1       -0.0368
     11  C8        -0.7560   -0.7130   -3.1170 C.ar    1  UNL1       -0.0592
     12  C9         0.4830   -0.5530   -2.4790 C.ar    1  UNL1       -0.0495
     13  C10        0.6000   -0.7120   -1.1180 C.ar    1  UNL1        0.0400
     14  C11        1.8530   -0.5610   -0.4000 C.2     1  UNL1        0.2602
     15  O3         1.9040   -0.4130    0.8550 O.2     1  UNL1       -0.2687
     16  N1         3.1360   -0.5640   -1.0450 N.am    1  UNL1       -0.2301
     17  N2         4.3220   -0.4140   -0.3310 N.am    1  UNL1       -0.2289
     18  C12        5.2770    0.6160   -0.5580 C.2     1  UNL1        0.2784
     19  O4         4.9720    1.4190   -1.4910 O.2     1  UNL1       -0.2670
     20  C13        6.5130    0.7670    0.1960 C.ar    1  UNL1        0.1268
     21  C14        6.8810   -0.0620    1.2260 C.ar    1  UNL1       -0.0311
     22  C15        8.0580    0.0910    1.9390 C.ar    1  UNL1       -0.0582
     23  C16        8.8720    1.1410    1.5640 C.ar    1  UNL1       -0.0436
     24  C17        8.4910    1.9660    0.5280 C.ar    1  UNL1        0.0284
     25  N3         7.3350    1.7650   -0.1260 N.ar    1  UNL1       -0.2503
     26  C18       -0.5340   -1.0310   -0.4090 C.ar    1  UNL1       -0.0247
     27  C19       -4.9760   -0.3840    1.5380 C.3     1  UNL1       -0.0277
     28 H          -7.6444    1.5763    0.8426 H       1  UNL1        0.0232
     29 H          -6.0720    2.0587    1.4324 H       1  UNL1        0.0232
     30 H          -7.0880    1.0199    2.4027 H       1  UNL1        0.0232
     31 H          -6.8929   -0.7426    0.6982 H       1  UNL1        0.0299
     32 H          -6.2722    1.2172   -1.0114 H       1  UNL1        0.0268
     33 H          -5.7859   -0.3968   -1.3106 H       1  UNL1        0.0268
     34 H          -4.2122    1.8558   -0.1151 H       1  UNL1        0.0284
     35 H          -3.6837    0.7457   -1.3035 H       1  UNL1        0.0284
     36 H          -2.9847    0.3577    1.2887 H       1  UNL1        0.0540
     37 H          -2.7878   -1.1511   -2.8507 H       1  UNL1        0.0636
     38 H          -0.8285   -0.5907   -4.1392 H       1  UNL1        0.0618
     39 H           1.3168   -0.3131   -3.0377 H       1  UNL1        0.0625
     40 H           3.1784   -0.6756   -2.0222 H       1  UNL1        0.1731
     41 H           4.5132   -1.0665    0.3810 H       1  UNL1        0.1732
     42 H           6.2496   -0.8373    1.4816 H       1  UNL1        0.0640
     43 H           8.3132   -0.5460    2.7098 H       1  UNL1        0.0619
     44 H           9.7628    1.3076    2.0578 H       1  UNL1        0.0633
     45 H           9.1026    2.7496    0.2506 H       1  UNL1        0.0830
     46 H          -0.4645   -1.1538    0.6133 H       1  UNL1        0.0644
     47 H          -5.0305   -1.4320    1.7469 H       1  UNL1        0.0286
     48 H          -4.9337    0.1376    2.4713 H       1  UNL1        0.0286
@<TRIPOS>BOND
     1     1     2    1
     2     2     3    1
     3     2    27    1
     4     3     4    1
     5     4     5    1
     6     5     6    1
     7     5    27    1
     8     6     7    2
     9     6     8    2
    10     6     9    1
    11     9    10   ar
    12     9    26   ar
    13    10    11   ar
    14    11    12   ar
    15    12    13   ar
    16    13    14    1
    17    13    26   ar
    18    14    15    2
    19    14    16   am
    20    16    17    1
    21    17    18   am
    22    18    19    2
    23    18    20    1
    24    20    21   ar
    25    20    25   ar
    26    21    22   ar
    27    22    23   ar
    28    23    24   ar
    29    24    25   ar
    30     1    28    1
    31     1    29    1
    32     1    30    1
    33     2    31    1
    34     3    32    1
    35     3    33    1
    36     4    34    1
    37     4    35    1
    38     5    36    1
    39    10    37    1
    40    11    38    1
    41    12    39    1
    42    16    40    1
    43    17    41    1
    44    21    42    1
    45    22    43    1
    46    23    44    1
    47    24    45    1
    48    26    46    1
    49    27    47    1
    50    27    48    1
@<TRIPOS>MOLECULE
../data/bude_mols_rdkit_confs2/molecule_87.pdb
 48 50 0 0 0
SMALL
GASTEIGER

@<TRIPOS>ATOM
      1  C1        -7.3340    0.2090   -0.5670 C.3     1  UNL1       -0.0624
      2  C2        -6.0680    0.5530    0.2210 C.3     1  UNL1       -0.0421
      3  C3        -5.5810   -0.6450    0.9670 C.3     1  UNL1       -0.0487
      4  C4        -4.6150   -1.3250    0.0330 C.3     1  UNL1       -0.0301
      5  C5        -4.3210   -0.4000   -1.0890 C.3     1  UNL1        0.0822
      6  S1        -2.6410   -0.2110   -1.5240 S.O2    1  UNL1       -0.0002
      7  O1        -2.1600   -1.4580   -2.2510 O.2     1  UNL1       -0.1691
      8  O2        -2.5850    0.8850   -2.5920 O.2     1  UNL1       -0.1691
      9  C6        -1.5600    0.1890   -0.2460 C.ar    1  UNL1        0.0892
     10  C7        -1.9550    0.5390    1.0120 C.ar    1  UNL1       -0.0368
     11  C8        -1.0400    0.8850    2.0070 C.ar    1  UNL1       -0.0592
     12  C9         0.2840    0.8740    1.7200 C.ar    1  UNL1       -0.0495
     13  C10        0.7320    0.5220    0.4490 C.ar    1  UNL1        0.0400
     14  C11        2.1440    0.5300    0.1530 C.2     1  UNL1        0.2602
     15  O3         2.8960    1.3480    0.7560 O.2     1  UNL1       -0.2687
     16  N1         2.7770   -0.3370   -0.7850 N.am    1  UNL1       -0.2301
     17  N2         4.1660   -0.2670   -1.0170 N.am    1  UNL1       -0.2289
     18  C12        5.1070   -0.4120    0.0400 C.2     1  UNL1        0.2784
     19  O4         4.6200   -0.6090    1.1840 O.2     1  UNL1       -0.2670
     20  C13        6.5360   -0.3480   -0.1160 C.ar    1  UNL1        0.1268
     21  C14        7.1340   -0.1090   -1.3180 C.ar    1  UNL1       -0.0311
     22  C15        8.5160   -0.0410   -1.4300 C.ar    1  UNL1       -0.0582
     23  C16        9.3090   -0.2190   -0.3050 C.ar    1  UNL1       -0.0436
     24  C17        8.6880   -0.4600    0.8980 C.ar    1  UNL1        0.0284
     25  N3         7.3330   -0.5140    0.9460 N.ar    1  UNL1       -0.2503
     26  C18       -0.2010    0.1920   -0.4900 C.ar    1  UNL1       -0.0247
     27  C19       -4.9750    0.9260   -0.7180 C.3     1  UNL1       -0.0277
     28 H          -8.1158   -0.0582    0.1130 H       1  UNL1        0.0232
     29 H          -7.1342   -0.6134   -1.2217 H       1  UNL1        0.0232
     30 H          -7.6372    1.0581   -1.1432 H       1  UNL1        0.0232
     31 H          -6.3087    1.3545    0.8878 H       1  UNL1        0.0299
     32 H          -6.3960   -1.2967    1.2037 H       1  UNL1        0.0268
     33 H          -5.1200   -0.3784    1.8951 H       1  UNL1        0.0268
     34 H          -5.0513   -2.2256   -0.3457 H       1  UNL1        0.0284
     35 H          -3.7128   -1.5723    0.5524 H       1  UNL1        0.0284
     36 H          -4.7216   -0.8239   -1.9860 H       1  UNL1        0.0540
     37 H          -2.9626    0.5482    1.2348 H       1  UNL1        0.0636
     38 H          -1.3678    1.1461    2.9501 H       1  UNL1        0.0618
     39 H           0.9673    1.1289    2.4502 H       1  UNL1        0.0625
     40 H           2.2358   -0.9949   -1.2785 H       1  UNL1        0.1731
     41 H           4.4927   -0.1140   -1.9330 H       1  UNL1        0.1732
     42 H           6.5496    0.0235   -2.1582 H       1  UNL1        0.0640
     43 H           8.9525    0.1414   -2.3472 H       1  UNL1        0.0619
     44 H          10.3379   -0.1717   -0.3696 H       1  UNL1        0.0633
     45 H           9.2463   -0.5983    1.7549 H       1  UNL1        0.0830
     46 H           0.1265   -0.0694   -1.4331 H       1  UNL1        0.0644
     47 H          -4.2707    1.5744   -0.2400 H       1  UNL1        0.0286
     48 H          -5.3376    1.4545   -1.5748 H       1  UNL1        0.0286
@<TRIPOS>BOND
     1     1     2    1
     2     2     3    1
     3     2    27    1
     4     3     4    1
     5     4     5    1
     6     5     6    1
     7     5    27    1
     8     6     7    2
     9     6     8    2
    10     6     9    1
    11     9    10   ar
    12     9    26   ar
    13    10    11   ar
    14    11    12   ar
    15    12    13   ar
    16    13    14    1
    17    13    26   ar
    18    14    15    2
    19    14    16   am
    20    16    17    1
    21    17    18   am
    22    18    19    2
    23    18    20    1
    24    20    21   ar
    25    20    25   ar
    26    21    22   ar
    27    22    23   ar
    28    23    24   ar
    29    24    25   ar
    30     1    28    1
    31     1    29    1
    32     1    30    1
    33     2    31    1
    34     3    32    1
    35     3    33    1
    36     4    34    1
    37     4    35    1
    38     5    36    1
    39    10    37    1
    40    11    38    1
    41    12    39    1
    42    16    40    1
    43    17    41    1
    44    21    42    1
    45    22    43    1
    46    23    44    1
    47    24    45    1
    48    26    46    1
    49    27    47    1
    50    27    48    1
@<TRIPOS>MOLECULE
../data/bude_mols_rdkit_confs2/molecule_87.pdb
 48 50 0 0 0
SMALL
GASTEIGER

@<TRIPOS>ATOM
      1  C1        -6.7000   -0.8730    1.0760 C.3     1  UNL1       -0.0624
      2  C2        -5.7490    0.0130    0.3000 C.3     1  UNL1       -0.0421
      3  C3        -5.9870    1.4710    0.5630 C.3     1  UNL1       -0.0487
      4  C4        -4.6960    2.1070    0.0930 C.3     1  UNL1       -0.0301
      5  C5        -3.6220    1.0220    0.2400 C.3     1  UNL1        0.0822
      6  S1        -2.9800    0.5880   -1.3600 S.O2    1  UNL1       -0.0002
      7  O1        -4.0430    0.0200   -2.2290 O.2     1  UNL1       -0.1691
      8  O2        -2.4930    1.8890   -1.9790 O.2     1  UNL1       -0.1691
      9  C6        -1.6810   -0.5510   -1.2000 C.ar    1  UNL1        0.0892
     10  C7        -1.9110   -1.9090   -1.1860 C.ar    1  UNL1       -0.0368
     11  C8        -0.8880   -2.8100   -1.0590 C.ar    1  UNL1       -0.0592
     12  C9         0.4270   -2.3720   -0.9380 C.ar    1  UNL1       -0.0495
     13  C10        0.6870   -1.0340   -0.9490 C.ar    1  UNL1        0.0400
     14  C11        2.0820   -0.5740   -0.8050 C.2     1  UNL1        0.2602
     15  O3         2.3490    0.5560   -1.2590 O.2     1  UNL1       -0.2687
     16  N1         3.0390   -1.3940   -0.1800 N.am    1  UNL1       -0.2301
     17  N2         4.3490   -0.9650   -0.0470 N.am    1  UNL1       -0.2289
     18  C12        4.7400    0.2940    0.4470 C.2     1  UNL1        0.2784
     19  O4         3.8490    1.1250    0.8010 O.2     1  UNL1       -0.2670
     20  C13        6.1500    0.6920    0.5730 C.ar    1  UNL1        0.1268
     21  C14        7.1970   -0.1450    0.2860 C.ar    1  UNL1       -0.0311
     22  C15        8.5060    0.3000    0.4220 C.ar    1  UNL1       -0.0582
     23  C16        8.7880    1.5800    0.8450 C.ar    1  UNL1       -0.0436
     24  C17        7.7160    2.3950    1.1250 C.ar    1  UNL1        0.0284
     25  N3         6.4650    1.9440    0.9860 N.ar    1  UNL1       -0.2503
     26  C18       -0.3650   -0.1330   -1.0790 C.ar    1  UNL1       -0.0247
     27  C19       -4.3230   -0.1670    0.8140 C.3     1  UNL1       -0.0277
     28 H          -7.6951   -0.7378    0.7066 H       1  UNL1        0.0232
     29 H          -6.6657   -0.6110    2.1129 H       1  UNL1        0.0232
     30 H          -6.4114   -1.8964    0.9570 H       1  UNL1        0.0232
     31 H          -5.8964   -0.2556   -0.7252 H       1  UNL1        0.0299
     32 H          -6.1508    1.6538    1.6045 H       1  UNL1        0.0268
     33 H          -6.8550    1.8560    0.0699 H       1  UNL1        0.0268
     34 H          -4.4553    2.9550    0.6996 H       1  UNL1        0.0284
     35 H          -4.7712    2.4544   -0.9162 H       1  UNL1        0.0284
     36 H          -2.8114    1.3551    0.8538 H       1  UNL1        0.0540
     37 H          -2.8789   -2.2561   -1.2735 H       1  UNL1        0.0636
     38 H          -1.0938   -3.8213   -1.0530 H       1  UNL1        0.0618
     39 H           1.1968   -3.0524   -0.8410 H       1  UNL1        0.0625
     40 H           2.7760   -2.2778    0.1648 H       1  UNL1        0.1731
     41 H           5.0612   -1.5880   -0.3186 H       1  UNL1        0.1732
     42 H           7.0122   -1.1092   -0.0322 H       1  UNL1        0.0640
     43 H           9.2833   -0.3420    0.2015 H       1  UNL1        0.0619
     44 H           9.7596    1.9125    0.9472 H       1  UNL1        0.0633
     45 H           7.8786    3.3626    1.4450 H       1  UNL1        0.0830
     46 H          -0.1591    0.8782   -1.0856 H       1  UNL1        0.0644
     47 H          -3.8945   -1.0794    0.4552 H       1  UNL1        0.0286
     48 H          -4.2576   -0.2282    1.8802 H       1  UNL1        0.0286
@<TRIPOS>BOND
     1     1     2    1
     2     2     3    1
     3     2    27    1
     4     3     4    1
     5     4     5    1
     6     5     6    1
     7     5    27    1
     8     6     7    2
     9     6     8    2
    10     6     9    1
    11     9    10   ar
    12     9    26   ar
    13    10    11   ar
    14    11    12   ar
    15    12    13   ar
    16    13    14    1
    17    13    26   ar
    18    14    15    2
    19    14    16   am
    20    16    17    1
    21    17    18   am
    22    18    19    2
    23    18    20    1
    24    20    21   ar
    25    20    25   ar
    26    21    22   ar
    27    22    23   ar
    28    23    24   ar
    29    24    25   ar
    30     1    28    1
    31     1    29    1
    32     1    30    1
    33     2    31    1
    34     3    32    1
    35     3    33    1
    36     4    34    1
    37     4    35    1
    38     5    36    1
    39    10    37    1
    40    11    38    1
    41    12    39    1
    42    16    40    1
    43    17    41    1
    44    21    42    1
    45    22    43    1
    46    23    44    1
    47    24    45    1
    48    26    46    1
    49    27    47    1
    50    27    48    1
@<TRIPOS>MOLECULE
../data/bude_mols_rdkit_confs2/molecule_87.pdb
 48 50 0 0 0
SMALL
GASTEIGER

@<TRIPOS>ATOM
      1  C1        -5.8270    0.0390   -2.1000 C.3     1  UNL1       -0.0624
      2  C2        -4.5760    0.6260   -1.5330 C.3     1  UNL1       -0.0421
      3  C3        -4.7990    1.3450   -0.2160 C.3     1  UNL1       -0.0487
      4  C4        -5.0640    0.1940    0.7230 C.3     1  UNL1       -0.0301
      5  C5        -4.2200   -0.9650    0.2110 C.3     1  UNL1        0.0822
      6  S1        -2.9640   -1.4240    1.3410 S.O2    1  UNL1       -0.0002
      7  O1        -3.5250   -1.8690    2.6740 O.2     1  UNL1       -0.1691
      8  O2        -2.2950   -2.6660    0.7630 O.2     1  UNL1       -0.1691
      9  C6        -1.7830   -0.1720    1.6010 C.ar    1  UNL1        0.0892
     10  C7        -2.0270    0.8380    2.4890 C.ar    1  UNL1       -0.0368
     11  C8        -1.0450    1.8020    2.6660 C.ar    1  UNL1       -0.0592
     12  C9         0.1510    1.7160    1.9430 C.ar    1  UNL1       -0.0495
     13  C10        0.3770    0.6960    1.0600 C.ar    1  UNL1        0.0400
     14  C11        1.6430    0.6400    0.3440 C.2     1  UNL1        0.2602
     15  O3         2.0560    1.6460   -0.2640 O.2     1  UNL1       -0.2687
     16  N1         2.4270   -0.5420    0.3180 N.am    1  UNL1       -0.2301
     17  N2         3.6420   -0.7210   -0.3250 N.am    1  UNL1       -0.2289
     18  C12        4.7730    0.0970   -0.1530 C.2     1  UNL1        0.2784
     19  O4         4.6910    1.0700    0.6300 O.2     1  UNL1       -0.2670
     20  C13        6.0130   -0.1570   -0.8450 C.ar    1  UNL1        0.1268
     21  C14        6.1990   -1.2430   -1.6650 C.ar    1  UNL1       -0.0311
     22  C15        7.4210   -1.4410   -2.3050 C.ar    1  UNL1       -0.0582
     23  C16        8.4250   -0.5430   -2.1060 C.ar    1  UNL1       -0.0436
     24  C17        8.2440    0.5670   -1.2710 C.ar    1  UNL1        0.0284
     25  N3         7.0490    0.6930   -0.6910 N.ar    1  UNL1       -0.2503
     26  C18       -0.5870   -0.2670    0.8730 C.ar    1  UNL1       -0.0247
     27  C19       -3.6360   -0.5040   -1.0820 C.3     1  UNL1       -0.0277
     28 H          -6.4802    0.8264   -2.4134 H       1  UNL1        0.0232
     29 H          -6.3140   -0.5523   -1.3530 H       1  UNL1        0.0232
     30 H          -5.5829   -0.5775   -2.9398 H       1  UNL1        0.0232
     31 H          -4.2082    1.2706   -2.3037 H       1  UNL1        0.0299
     32 H          -5.6393    2.0052   -0.2700 H       1  UNL1        0.0268
     33 H          -3.9813    1.9676    0.0817 H       1  UNL1        0.0268
     34 H          -6.1017   -0.0665    0.7089 H       1  UNL1        0.0284
     35 H          -4.8148    0.4454    1.7328 H       1  UNL1        0.0284
     36 H          -4.8213   -1.8413    0.0863 H       1  UNL1        0.0540
     37 H          -2.9154    0.8822    3.0123 H       1  UNL1        0.0636
     38 H          -1.1955    2.5793    3.3279 H       1  UNL1        0.0618
     39 H           0.8768    2.4369    2.0791 H       1  UNL1        0.0625
     40 H           2.0704   -1.3174    0.8087 H       1  UNL1        0.1731
     41 H           3.7190   -1.4782   -0.9494 H       1  UNL1        0.1732
     42 H           5.4298   -1.9159   -1.8080 H       1  UNL1        0.0640
     43 H           7.5630   -2.2567   -2.9210 H       1  UNL1        0.0619
     44 H           9.3325   -0.6822   -2.5772 H       1  UNL1        0.0633
     45 H           8.9979    1.2536   -1.1122 H       1  UNL1        0.0830
     46 H          -0.4339   -1.0436    0.2108 H       1  UNL1        0.0644
     47 H          -2.6409   -0.1372   -0.9405 H       1  UNL1        0.0286
     48 H          -3.5615   -1.2904   -1.8038 H       1  UNL1        0.0286
@<TRIPOS>BOND
     1     1     2    1
     2     2     3    1
     3     2    27    1
     4     3     4    1
     5     4     5    1
     6     5     6    1
     7     5    27    1
     8     6     7    2
     9     6     8    2
    10     6     9    1
    11     9    10   ar
    12     9    26   ar
    13    10    11   ar
    14    11    12   ar
    15    12    13   ar
    16    13    14    1
    17    13    26   ar
    18    14    15    2
    19    14    16   am
    20    16    17    1
    21    17    18   am
    22    18    19    2
    23    18    20    1
    24    20    21   ar
    25    20    25   ar
    26    21    22   ar
    27    22    23   ar
    28    23    24   ar
    29    24    25   ar
    30     1    28    1
    31     1    29    1
    32     1    30    1
    33     2    31    1
    34     3    32    1
    35     3    33    1
    36     4    34    1
    37     4    35    1
    38     5    36    1
    39    10    37    1
    40    11    38    1
    41    12    39    1
    42    16    40    1
    43    17    41    1
    44    21    42    1
    45    22    43    1
    46    23    44    1
    47    24    45    1
    48    26    46    1
    49    27    47    1
    50    27    48    1
@<TRIPOS>MOLECULE
../data/bude_mols_rdkit_confs2/molecule_87.pdb
 48 50 0 0 0
SMALL
GASTEIGER

@<TRIPOS>ATOM
      1  C1        -6.8420   -2.0990   -0.5060 C.3     1  UNL1       -0.0624
      2  C2        -5.5090   -1.4780   -0.1440 C.3     1  UNL1       -0.0421
      3  C3        -4.6360   -1.2820   -1.3600 C.3     1  UNL1       -0.0487
      4  C4        -3.6010   -0.2940   -0.8450 C.3     1  UNL1       -0.0301
      5  C5        -4.3330    0.5590    0.1630 C.3     1  UNL1        0.0822
      6  S1        -3.3830    0.6460    1.6620 S.O2    1  UNL1       -0.0002
      7  O1        -4.1520    1.3450    2.7470 O.2     1  UNL1       -0.1691
      8  O2        -3.1250   -0.7780    2.1050 O.2     1  UNL1       -0.1691
      9  C6        -1.8460    1.4340    1.3620 C.ar    1  UNL1        0.0892
     10  C7        -1.7970    2.8070    1.4410 C.ar    1  UNL1       -0.0368
     11  C8        -0.5970    3.4410    1.2110 C.ar    1  UNL1       -0.0592
     12  C9         0.5310    2.6720    0.9060 C.ar    1  UNL1       -0.0495
     13  C10        0.5080    1.3080    0.8210 C.ar    1  UNL1        0.0400
     14  C11        1.6810    0.5030    0.5110 C.2     1  UNL1        0.2602
     15  O3         1.5860   -0.7420    0.4050 O.2     1  UNL1       -0.2687
     16  N1         2.9620    1.0750    0.3180 N.am    1  UNL1       -0.2301
     17  N2         4.0380    0.2420    0.0250 N.am    1  UNL1       -0.2289
     18  C12        5.3890    0.6290    0.1820 C.2     1  UNL1        0.2784
     19  O4         5.6010    1.7970    0.6120 O.2     1  UNL1       -0.2670
     20  C13        6.5280   -0.2470   -0.1260 C.ar    1  UNL1        0.1268
     21  C14        6.3730   -1.5160   -0.6020 C.ar    1  UNL1       -0.0311
     22  C15        7.4830   -2.3090   -0.8770 C.ar    1  UNL1       -0.0582
     23  C16        8.7410   -1.7830   -0.6570 C.ar    1  UNL1       -0.0436
     24  C17        8.8860   -0.5010   -0.1760 C.ar    1  UNL1        0.0284
     25  N3         7.7840    0.1980    0.0640 N.ar    1  UNL1       -0.2503
     26  C18       -0.7220    0.6950    1.0590 C.ar    1  UNL1       -0.0247
     27  C19       -5.6670   -0.0760    0.3820 C.3     1  UNL1       -0.0277
     28 H          -6.6849   -3.0913   -0.8741 H       1  UNL1        0.0232
     29 H          -7.3167   -1.5091   -1.2620 H       1  UNL1        0.0232
     30 H          -7.4661   -2.1353    0.3624 H       1  UNL1        0.0232
     31 H          -5.0886   -2.1505    0.5743 H       1  UNL1        0.0299
     32 H          -5.1925   -0.8726   -2.1771 H       1  UNL1        0.0268
     33 H          -4.2162   -2.1889   -1.7424 H       1  UNL1        0.0268
     34 H          -3.2275    0.3093   -1.6459 H       1  UNL1        0.0284
     35 H          -2.7573   -0.7891   -0.4114 H       1  UNL1        0.0284
     36 H          -4.4678    1.5631   -0.1812 H       1  UNL1        0.0540
     37 H          -2.6439    3.3511    1.6684 H       1  UNL1        0.0636
     38 H          -0.5304    4.4695    1.2629 H       1  UNL1        0.0618
     39 H           1.4251    3.1588    0.7367 H       1  UNL1        0.0625
     40 H           3.0898    2.0485    0.3901 H       1  UNL1        0.1731
     41 H           3.8484   -0.6644   -0.3092 H       1  UNL1        0.1732
     42 H           5.4246   -1.8911   -0.7595 H       1  UNL1        0.0640
     43 H           7.3687   -3.2692   -1.2375 H       1  UNL1        0.0619
     44 H           9.5774   -2.3544   -0.8543 H       1  UNL1        0.0633
     45 H           9.8207   -0.0972   -0.0077 H       1  UNL1        0.0830
     46 H          -0.7923   -0.3333    1.0072 H       1  UNL1        0.0644
     47 H          -5.9135   -0.0884    1.4231 H       1  UNL1        0.0286
     48 H          -6.4557    0.4556   -0.1081 H       1  UNL1        0.0286
@<TRIPOS>BOND
     1     1     2    1
     2     2     3    1
     3     2    27    1
     4     3     4    1
     5     4     5    1
     6     5     6    1
     7     5    27    1
     8     6     7    2
     9     6     8    2
    10     6     9    1
    11     9    10   ar
    12     9    26   ar
    13    10    11   ar
    14    11    12   ar
    15    12    13   ar
    16    13    14    1
    17    13    26   ar
    18    14    15    2
    19    14    16   am
    20    16    17    1
    21    17    18   am
    22    18    19    2
    23    18    20    1
    24    20    21   ar
    25    20    25   ar
    26    21    22   ar
    27    22    23   ar
    28    23    24   ar
    29    24    25   ar
    30     1    28    1
    31     1    29    1
    32     1    30    1
    33     2    31    1
    34     3    32    1
    35     3    33    1
    36     4    34    1
    37     4    35    1
    38     5    36    1
    39    10    37    1
    40    11    38    1
    41    12    39    1
    42    16    40    1
    43    17    41    1
    44    21    42    1
    45    22    43    1
    46    23    44    1
    47    24    45    1
    48    26    46    1
    49    27    47    1
    50    27    48    1
@<TRIPOS>MOLECULE
../data/bude_mols_rdkit_confs2/molecule_87.pdb
 48 50 0 0 0
SMALL
GASTEIGER

@<TRIPOS>ATOM
      1  C1        -6.5010    0.4050    2.0110 C.3     1  UNL1       -0.0624
      2  C2        -5.6320    1.4270    1.3190 C.3     1  UNL1       -0.0421
      3  C3        -4.2780    1.4440    1.9260 C.3     1  UNL1       -0.0487
      4  C4        -3.4150    0.5810    1.0850 C.3     1  UNL1       -0.0301
      5  C5        -4.2480    0.1220   -0.0770 C.3     1  UNL1        0.0822
      6  S1        -3.3300    0.0850   -1.6000 S.O2    1  UNL1       -0.0002
      7  O1        -2.8930    1.4950   -1.9040 O.2     1  UNL1       -0.1691
      8  O2        -4.1350   -0.4460   -2.7260 O.2     1  UNL1       -0.1691
      9  C6        -1.9560   -0.9750   -1.3780 C.ar    1  UNL1        0.0892
     10  C7        -2.0630   -2.3300   -1.6170 C.ar    1  UNL1       -0.0368
     11  C8        -0.9410   -3.1120   -1.4270 C.ar    1  UNL1       -0.0592
     12  C9         0.2680   -2.5420   -1.0050 C.ar    1  UNL1       -0.0495
     13  C10        0.3790   -1.1910   -0.7660 C.ar    1  UNL1        0.0400
     14  C11        1.6360   -0.5680   -0.3260 C.2     1  UNL1        0.2602
     15  O3         1.6280    0.6780   -0.0740 O.2     1  UNL1       -0.2687
     16  N1         2.8510   -1.2400   -0.1600 N.am    1  UNL1       -0.2301
     17  N2         4.0090   -0.5420    0.2700 N.am    1  UNL1       -0.2289
     18  C12        5.0500   -0.2210   -0.6380 C.2     1  UNL1        0.2784
     19  O4         4.9090   -0.5810   -1.8510 O.2     1  UNL1       -0.2670
     20  C13        6.2630    0.4980   -0.2490 C.ar    1  UNL1        0.1268
     21  C14        7.2410    0.7860   -1.1780 C.ar    1  UNL1       -0.0311
     22  C15        8.4020    1.4650   -0.8380 C.ar    1  UNL1       -0.0582
     23  C16        8.5390    1.8440    0.4850 C.ar    1  UNL1       -0.0436
     24  C17        7.5670    1.5600    1.4240 C.ar    1  UNL1        0.0284
     25  N3         6.4730    0.9010    1.0170 N.ar    1  UNL1       -0.2503
     26  C18       -0.7450   -0.4190   -0.9570 C.ar    1  UNL1       -0.0247
     27  C19       -5.4290    1.0650   -0.1500 C.3     1  UNL1       -0.0277
     28 H          -6.6279    0.6808    3.0370 H       1  UNL1        0.0232
     29 H          -6.0344   -0.5563    1.9552 H       1  UNL1        0.0232
     30 H          -7.4567    0.3660    1.5313 H       1  UNL1        0.0232
     31 H          -6.1238    2.3721    1.4183 H       1  UNL1        0.0299
     32 H          -4.3182    1.0617    2.9246 H       1  UNL1        0.0268
     33 H          -3.8924    2.4411    1.9713 H       1  UNL1        0.0268
     34 H          -3.0772   -0.2624    1.6503 H       1  UNL1        0.0284
     35 H          -2.5532    1.1178    0.7473 H       1  UNL1        0.0284
     36 H          -4.5708   -0.8877    0.0683 H       1  UNL1        0.0540
     37 H          -2.9546   -2.7462   -1.9283 H       1  UNL1        0.0636
     38 H          -0.9932   -4.1284   -1.5978 H       1  UNL1        0.0618
     39 H           1.0924   -3.1481   -0.8706 H       1  UNL1        0.0625
     40 H           2.9034   -2.2059   -0.3431 H       1  UNL1        0.1731
     41 H           4.0912   -0.2761    1.2143 H       1  UNL1        0.1732
     42 H           7.1049    0.4871   -2.1563 H       1  UNL1        0.0640
     43 H           9.1290    1.6772   -1.5391 H       1  UNL1        0.0619
     44 H           9.3885    2.3516    0.7777 H       1  UNL1        0.0633
     45 H           7.6795    1.8464    2.4091 H       1  UNL1        0.0830
     46 H          -0.6917    0.5971   -0.7847 H       1  UNL1        0.0644
     47 H          -5.2007    1.9304   -0.7364 H       1  UNL1        0.0286
     48 H          -6.2941    0.6402   -0.6148 H       1  UNL1        0.0286
@<TRIPOS>BOND
     1     1     2    1
     2     2     3    1
     3     2    27    1
     4     3     4    1
     5     4     5    1
     6     5     6    1
     7     5    27    1
     8     6     7    2
     9     6     8    2
    10     6     9    1
    11     9    10   ar
    12     9    26   ar
    13    10    11   ar
    14    11    12   ar
    15    12    13   ar
    16    13    14    1
    17    13    26   ar
    18    14    15    2
    19    14    16   am
    20    16    17    1
    21    17    18   am
    22    18    19    2
    23    18    20    1
    24    20    21   ar
    25    20    25   ar
    26    21    22   ar
    27    22    23   ar
    28    23    24   ar
    29    24    25   ar
    30     1    28    1
    31     1    29    1
    32     1    30    1
    33     2    31    1
    34     3    32    1
    35     3    33    1
    36     4    34    1
    37     4    35    1
    38     5    36    1
    39    10    37    1
    40    11    38    1
    41    12    39    1
    42    16    40    1
    43    17    41    1
    44    21    42    1
    45    22    43    1
    46    23    44    1
    47    24    45    1
    48    26    46    1
    49    27    47    1
    50    27    48    1
@<TRIPOS>MOLECULE
../data/bude_mols_rdkit_confs2/molecule_87.pdb
 48 50 0 0 0
SMALL
GASTEIGER

@<TRIPOS>ATOM
      1  C1        -4.5320   -2.6450   -0.7680 C.3     1  UNL1       -0.0624
      2  C2        -4.6500   -1.1420   -0.9090 C.3     1  UNL1       -0.0421
      3  C3        -6.0030   -0.6450   -0.4450 C.3     1  UNL1       -0.0487
      4  C4        -5.7260    0.8650   -0.4130 C.3     1  UNL1       -0.0301
      5  C5        -4.3240    0.9450    0.1720 C.3     1  UNL1        0.0822
      6  S1        -3.3470    2.1680   -0.6190 S.O2    1  UNL1       -0.0002
      7  O1        -4.0010    3.5300   -0.5430 O.2     1  UNL1       -0.1691
      8  O2        -3.1340    1.8820   -2.0770 O.2     1  UNL1       -0.1691
      9  C6        -1.7720    2.2680    0.1300 C.ar    1  UNL1        0.0892
     10  C7        -1.6310    3.1110    1.2110 C.ar    1  UNL1       -0.0368
     11  C8        -0.4290    3.2620    1.8640 C.ar    1  UNL1       -0.0592
     12  C9         0.6690    2.5410    1.4160 C.ar    1  UNL1       -0.0495
     13  C10        0.5340    1.6980    0.3370 C.ar    1  UNL1        0.0400
     14  C11        1.6530    0.9230   -0.1790 C.2     1  UNL1        0.2602
     15  O3         1.4730    0.0890   -1.1340 O.2     1  UNL1       -0.2687
     16  N1         2.9780    1.0120    0.2970 N.am    1  UNL1       -0.2301
     17  N2         4.0360    0.2400   -0.2370 N.am    1  UNL1       -0.2289
     18  C12        4.7980   -0.6360    0.5660 C.2     1  UNL1        0.2784
     19  O4         4.4820   -0.6890    1.7910 O.2     1  UNL1       -0.2670
     20  C13        5.9010   -1.4620    0.0720 C.ar    1  UNL1        0.1268
     21  C14        6.2850   -1.4420   -1.2420 C.ar    1  UNL1       -0.0311
     22  C15        7.3300   -2.2330   -1.7160 C.ar    1  UNL1       -0.0582
     23  C16        7.9790   -3.0510   -0.8130 C.ar    1  UNL1       -0.0436
     24  C17        7.5580   -3.0370    0.4950 C.ar    1  UNL1        0.0284
     25  N3         6.5590   -2.2750    0.9290 N.ar    1  UNL1       -0.2503
     26  C18       -0.6880    1.5630   -0.3040 C.ar    1  UNL1       -0.0247
     27  C19       -3.6990   -0.4060   -0.0120 C.3     1  UNL1       -0.0277
     28 H          -5.2286   -3.1208   -1.4262 H       1  UNL1        0.0232
     29 H          -4.7462   -2.9264    0.2419 H       1  UNL1        0.0232
     30 H          -3.5378   -2.9499   -1.0200 H       1  UNL1        0.0232
     31 H          -4.4610   -0.9612   -1.9465 H       1  UNL1        0.0299
     32 H          -6.2563   -1.0242    0.5229 H       1  UNL1        0.0268
     33 H          -6.8296   -0.9419   -1.0562 H       1  UNL1        0.0268
     34 H          -6.4322    1.3721    0.2107 H       1  UNL1        0.0284
     35 H          -5.8084    1.3287   -1.3738 H       1  UNL1        0.0284
     36 H          -4.3802    1.2208    1.2043 H       1  UNL1        0.0540
     37 H          -2.4506    3.6446    1.5404 H       1  UNL1        0.0636
     38 H          -0.3457    3.8993    2.6715 H       1  UNL1        0.0618
     39 H           1.5811    2.6366    1.8893 H       1  UNL1        0.0625
     40 H           3.1744    1.6375    1.0314 H       1  UNL1        0.1731
     41 H           4.2469    0.3157   -1.1957 H       1  UNL1        0.1732
     42 H           5.7863   -0.8234   -1.9005 H       1  UNL1        0.0640
     43 H           7.6094   -2.2080   -2.7092 H       1  UNL1        0.0619
     44 H           8.7592   -3.6566   -1.1122 H       1  UNL1        0.0633
     45 H           8.0406   -3.6474    1.1729 H       1  UNL1        0.0830
     46 H          -0.7777    0.9272   -1.1119 H       1  UNL1        0.0644
     47 H          -2.7369   -0.3180   -0.4720 H       1  UNL1        0.0286
     48 H          -3.5434   -0.9119    0.9179 H       1  UNL1        0.0286
@<TRIPOS>BOND
     1     1     2    1
     2     2     3    1
     3     2    27    1
     4     3     4    1
     5     4     5    1
     6     5     6    1
     7     5    27    1
     8     6     7    2
     9     6     8    2
    10     6     9    1
    11     9    10   ar
    12     9    26   ar
    13    10    11   ar
    14    11    12   ar
    15    12    13   ar
    16    13    14    1
    17    13    26   ar
    18    14    15    2
    19    14    16   am
    20    16    17    1
    21    17    18   am
    22    18    19    2
    23    18    20    1
    24    20    21   ar
    25    20    25   ar
    26    21    22   ar
    27    22    23   ar
    28    23    24   ar
    29    24    25   ar
    30     1    28    1
    31     1    29    1
    32     1    30    1
    33     2    31    1
    34     3    32    1
    35     3    33    1
    36     4    34    1
    37     4    35    1
    38     5    36    1
    39    10    37    1
    40    11    38    1
    41    12    39    1
    42    16    40    1
    43    17    41    1
    44    21    42    1
    45    22    43    1
    46    23    44    1
    47    24    45    1
    48    26    46    1
    49    27    47    1
    50    27    48    1
@<TRIPOS>MOLECULE
../data/bude_mols_rdkit_confs2/molecule_87.pdb
 48 50 0 0 0
SMALL
GASTEIGER

@<TRIPOS>ATOM
      1  C1        -5.4550   -1.8750   -2.1920 C.3     1  UNL1       -0.0624
      2  C2        -4.8730   -0.6130   -1.6430 C.3     1  UNL1       -0.0421
      3  C3        -5.8850    0.2010   -0.8670 C.3     1  UNL1       -0.0487
      4  C4        -5.1110    0.6240    0.3660 C.3     1  UNL1       -0.0301
      5  C5        -4.3790   -0.6750    0.6830 C.3     1  UNL1        0.0822
      6  S1        -3.2850   -0.5300    2.0230 S.O2    1  UNL1       -0.0002
      7  O1        -4.0820   -0.0600    3.2320 O.2     1  UNL1       -0.1691
      8  O2        -2.8010   -1.9170    2.3930 O.2     1  UNL1       -0.1691
      9  C6        -1.9710    0.5470    1.7870 C.ar    1  UNL1        0.0892
     10  C7        -2.1270    1.9050    1.8830 C.ar    1  UNL1       -0.0368
     11  C8        -1.0400    2.7360    1.7150 C.ar    1  UNL1       -0.0592
     12  C9         0.2240    2.2100    1.4480 C.ar    1  UNL1       -0.0495
     13  C10        0.3980    0.8510    1.3500 C.ar    1  UNL1        0.0400
     14  C11        1.7090    0.2650    1.0990 C.2     1  UNL1        0.2602
     15  O3         1.7950   -0.9970    0.9690 O.2     1  UNL1       -0.2687
     16  N1         2.9050    1.0110    0.9900 N.am    1  UNL1       -0.2301
     17  N2         4.1450    0.3750    0.7530 N.am    1  UNL1       -0.2289
     18  C12        4.8960    0.6010   -0.4480 C.2     1  UNL1        0.2784
     19  O4         4.4100    1.3840   -1.2860 O.2     1  UNL1       -0.2670
     20  C13        6.1840   -0.0550   -0.6950 C.ar    1  UNL1        0.1268
     21  C14        6.8560    0.1690   -1.8890 C.ar    1  UNL1       -0.0311
     22  C15        8.0720   -0.4470   -2.1320 C.ar    1  UNL1       -0.0582
     23  C16        8.6110   -1.2800   -1.1880 C.ar    1  UNL1       -0.0436
     24  C17        7.9490   -1.4970   -0.0170 C.ar    1  UNL1        0.0284
     25  N3         6.7550   -0.8780    0.1960 N.ar    1  UNL1       -0.2503
     26  C18       -0.7190    0.0480    1.5240 C.ar    1  UNL1       -0.0247
     27  C19       -3.7740   -1.0060   -0.6440 C.3     1  UNL1       -0.0277
     28 H          -6.2265   -1.6362   -2.8938 H       1  UNL1        0.0232
     29 H          -5.8669   -2.4550   -1.3928 H       1  UNL1        0.0232
     30 H          -4.6883   -2.4375   -2.6825 H       1  UNL1        0.0232
     31 H          -4.5177   -0.0305   -2.4672 H       1  UNL1        0.0299
     32 H          -6.7346   -0.3932   -0.6024 H       1  UNL1        0.0268
     33 H          -6.2761    1.0274   -1.4228 H       1  UNL1        0.0268
     34 H          -5.7631    0.9161    1.1625 H       1  UNL1        0.0284
     35 H          -4.4768    1.4747    0.2282 H       1  UNL1        0.0284
     36 H          -4.9968   -1.4709    1.0433 H       1  UNL1        0.0540
     37 H          -3.0574    2.3053    2.0809 H       1  UNL1        0.0636
     38 H          -1.1627    3.7581    1.7875 H       1  UNL1        0.0618
     39 H           1.0297    2.8428    1.3239 H       1  UNL1        0.0625
     40 H           2.8737    1.9908    1.0808 H       1  UNL1        0.1731
     41 H           4.5036   -0.2410    1.4321 H       1  UNL1        0.1732
     42 H           6.4475    0.7973   -2.5985 H       1  UNL1        0.0640
     43 H           8.5698   -0.2792   -3.0203 H       1  UNL1        0.0619
     44 H           9.5168   -1.7425   -1.3632 H       1  UNL1        0.0633
     45 H           8.3478   -2.1231    0.7000 H       1  UNL1        0.0830
     46 H          -0.6037   -0.9750    1.4523 H       1  UNL1        0.0644
     47 H          -2.8831   -0.4375   -0.8113 H       1  UNL1        0.0286
     48 H          -3.4817   -2.0320   -0.7261 H       1  UNL1        0.0286
@<TRIPOS>BOND
     1     1     2    1
     2     2     3    1
     3     2    27    1
     4     3     4    1
     5     4     5    1
     6     5     6    1
     7     5    27    1
     8     6     7    2
     9     6     8    2
    10     6     9    1
    11     9    10   ar
    12     9    26   ar
    13    10    11   ar
    14    11    12   ar
    15    12    13   ar
    16    13    14    1
    17    13    26   ar
    18    14    15    2
    19    14    16   am
    20    16    17    1
    21    17    18   am
    22    18    19    2
    23    18    20    1
    24    20    21   ar
    25    20    25   ar
    26    21    22   ar
    27    22    23   ar
    28    23    24   ar
    29    24    25   ar
    30     1    28    1
    31     1    29    1
    32     1    30    1
    33     2    31    1
    34     3    32    1
    35     3    33    1
    36     4    34    1
    37     4    35    1
    38     5    36    1
    39    10    37    1
    40    11    38    1
    41    12    39    1
    42    16    40    1
    43    17    41    1
    44    21    42    1
    45    22    43    1
    46    23    44    1
    47    24    45    1
    48    26    46    1
    49    27    47    1
    50    27    48    1
@<TRIPOS>MOLECULE
../data/bude_mols_rdkit_confs2/molecule_87.pdb
 48 50 0 0 0
SMALL
GASTEIGER

@<TRIPOS>ATOM
      1  C1        -3.8060    1.6100   -2.2460 C.3     1  UNL1       -0.0624
      2  C2        -3.9250    0.6870   -1.0540 C.3     1  UNL1       -0.0421
      3  C3        -5.3380    0.4980   -0.5900 C.3     1  UNL1       -0.0487
      4  C4        -5.2250   -0.7330    0.2970 C.3     1  UNL1       -0.0301
      5  C5        -4.2390   -1.6330   -0.4440 C.3     1  UNL1        0.0822
      6  S1        -3.1080   -2.4320    0.6480 S.O2    1  UNL1       -0.0002
      7  O1        -3.8700   -3.2040    1.7020 O.2     1  UNL1       -0.1691
      8  O2        -2.2280   -3.4000   -0.1200 O.2     1  UNL1       -0.1691
      9  C6        -2.0550   -1.2480    1.3740 C.ar    1  UNL1        0.0892
     10  C7        -2.4320   -0.6150    2.5270 C.ar    1  UNL1       -0.0368
     11  C8        -1.5700    0.3250    3.0650 C.ar    1  UNL1       -0.0592
     12  C9        -0.3490    0.6140    2.4410 C.ar    1  UNL1       -0.0495
     13  C10        0.0340   -0.0160    1.2900 C.ar    1  UNL1        0.0400
     14  C11        1.3070    0.2770    0.6360 C.2     1  UNL1        0.2602
     15  O3         1.4210    1.3160   -0.0560 O.2     1  UNL1       -0.2687
     16  N1         2.4320   -0.5710    0.7490 N.am    1  UNL1       -0.2301
     17  N2         3.6800   -0.3640    0.1470 N.am    1  UNL1       -0.2289
     18  C12        4.4450    0.7950    0.2010 C.2     1  UNL1        0.2784
     19  O4         3.9770    1.7680    0.8600 O.2     1  UNL1       -0.2670
     20  C13        5.7430    0.9020   -0.4720 C.ar    1  UNL1        0.1268
     21  C14        6.2590   -0.1330   -1.2120 C.ar    1  UNL1       -0.0311
     22  C15        7.4700   -0.0440   -1.8520 C.ar    1  UNL1       -0.0582
     23  C16        8.1890    1.1180   -1.7480 C.ar    1  UNL1       -0.0436
     24  C17        7.6600    2.1540   -1.0000 C.ar    1  UNL1        0.0284
     25  N3         6.4730    2.0370   -0.3860 N.ar    1  UNL1       -0.2503
     26  C18       -0.8280   -0.9510    0.7590 C.ar    1  UNL1       -0.0247
     27  C19       -3.5080   -0.7350   -1.3960 C.3     1  UNL1       -0.0277
     28 H          -4.1077    2.5972   -1.9642 H       1  UNL1        0.0232
     29 H          -4.4358    1.2562   -3.0353 H       1  UNL1        0.0232
     30 H          -2.7903    1.6297   -2.5818 H       1  UNL1        0.0232
     31 H          -3.3081    1.1586   -0.3178 H       1  UNL1        0.0299
     32 H          -5.9967    0.3224   -1.4148 H       1  UNL1        0.0268
     33 H          -5.7426    1.3522   -0.0885 H       1  UNL1        0.0268
     34 H          -6.1747   -1.2146    0.4020 H       1  UNL1        0.0284
     35 H          -4.9017   -0.4972    1.2894 H       1  UNL1        0.0284
     36 H          -4.7574   -2.4220   -0.9476 H       1  UNL1        0.0540
     37 H          -3.3325   -0.8320    2.9821 H       1  UNL1        0.0636
     38 H          -1.8290    0.8177    3.9340 H       1  UNL1        0.0618
     39 H           0.2763    1.3197    2.8607 H       1  UNL1        0.0625
     40 H           2.3294   -1.3801    1.3005 H       1  UNL1        0.1731
     41 H           4.0532   -1.1164   -0.3667 H       1  UNL1        0.1732
     42 H           5.7176   -1.0082   -1.2897 H       1  UNL1        0.0640
     43 H           7.8327   -0.8383   -2.4020 H       1  UNL1        0.0619
     44 H           9.1031    1.2176   -2.2165 H       1  UNL1        0.0633
     45 H           8.1894    3.0355   -0.9123 H       1  UNL1        0.0830
     46 H          -0.5661   -1.4435   -0.1093 H       1  UNL1        0.0644
     47 H          -2.4511   -0.8496   -1.2748 H       1  UNL1        0.0286
     48 H          -3.7438   -0.9739   -2.4120 H       1  UNL1        0.0286
@<TRIPOS>BOND
     1     1     2    1
     2     2     3    1
     3     2    27    1
     4     3     4    1
     5     4     5    1
     6     5     6    1
     7     5    27    1
     8     6     7    2
     9     6     8    2
    10     6     9    1
    11     9    10   ar
    12     9    26   ar
    13    10    11   ar
    14    11    12   ar
    15    12    13   ar
    16    13    14    1
    17    13    26   ar
    18    14    15    2
    19    14    16   am
    20    16    17    1
    21    17    18   am
    22    18    19    2
    23    18    20    1
    24    20    21   ar
    25    20    25   ar
    26    21    22   ar
    27    22    23   ar
    28    23    24   ar
    29    24    25   ar
    30     1    28    1
    31     1    29    1
    32     1    30    1
    33     2    31    1
    34     3    32    1
    35     3    33    1
    36     4    34    1
    37     4    35    1
    38     5    36    1
    39    10    37    1
    40    11    38    1
    41    12    39    1
    42    16    40    1
    43    17    41    1
    44    21    42    1
    45    22    43    1
    46    23    44    1
    47    24    45    1
    48    26    46    1
    49    27    47    1
    50    27    48    1
@<TRIPOS>MOLECULE
../data/bude_mols_rdkit_confs2/molecule_87.pdb
 48 50 0 0 0
SMALL
GASTEIGER

@<TRIPOS>ATOM
      1  C1         6.2910    1.6710   -0.8180 C.3     1  UNL1       -0.0624
      2  C2         6.3200    0.1880   -1.0690 C.3     1  UNL1       -0.0421
      3  C3         6.5120   -0.5390    0.2480 C.3     1  UNL1       -0.0487
      4  C4         5.1120   -1.0250    0.6390 C.3     1  UNL1       -0.0301
      5  C5         4.1810   -0.2430   -0.2000 C.3     1  UNL1        0.0822
      6  S1         2.6010   -0.9370   -0.4750 S.O2    1  UNL1       -0.0002
      7  O1         2.6780   -2.4570   -0.5410 O.2     1  UNL1       -0.1691
      8  O2         1.9980   -0.4520   -1.7920 O.2     1  UNL1       -0.1691
      9  C6         1.4880   -0.5360    0.8000 C.ar    1  UNL1        0.0892
     10  C7         1.8960   -0.2920    2.0840 C.ar    1  UNL1       -0.0368
     11  C8         0.9170   -0.0300    3.0470 C.ar    1  UNL1       -0.0592
     12  C9        -0.4160   -0.0180    2.7210 C.ar    1  UNL1       -0.0495
     13  C10       -0.8190   -0.2690    1.4100 C.ar    1  UNL1        0.0400
     14  C11       -2.2750   -0.2740    1.1380 C.2     1  UNL1        0.2602
     15  O3        -3.0980   -0.1090    2.0740 O.2     1  UNL1       -0.2687
     16  N1        -2.8030   -0.4590   -0.1530 N.am    1  UNL1       -0.2301
     17  N2        -4.2130   -0.4700   -0.3490 N.am    1  UNL1       -0.2289
     18  C12       -5.0490    0.6020    0.0410 C.2     1  UNL1        0.2784
     19  O4        -4.4770    1.5840    0.5720 O.2     1  UNL1       -0.2670
     20  C13       -6.4970    0.6410   -0.1310 C.ar    1  UNL1        0.1268
     21  C14       -7.1740   -0.4200   -0.6510 C.ar    1  UNL1       -0.0311
     22  C15       -8.5440   -0.3350   -0.8020 C.ar    1  UNL1       -0.0582
     23  C16       -9.1880    0.8180   -0.4230 C.ar    1  UNL1       -0.0436
     24  C17       -8.4550    1.8860    0.1090 C.ar    1  UNL1        0.0284
     25  N3        -7.1350    1.7750    0.2430 N.ar    1  UNL1       -0.2503
     26  C18        0.1130   -0.5190    0.4760 C.ar    1  UNL1       -0.0247
     27  C19        4.9770   -0.2960   -1.5580 C.3     1  UNL1       -0.0277
     28 H           7.2511    1.9931   -0.4726 H       1  UNL1        0.0232
     29 H           5.5523    1.8928   -0.0764 H       1  UNL1        0.0232
     30 H           6.0490    2.1818   -1.7265 H       1  UNL1        0.0232
     31 H           7.1000    0.0030   -1.7777 H       1  UNL1        0.0299
     32 H           6.9010    0.1252    0.9913 H       1  UNL1        0.0268
     33 H           7.2094   -1.3462    0.1642 H       1  UNL1        0.0268
     34 H           4.9271   -0.8403    1.6766 H       1  UNL1        0.0284
     35 H           4.9979   -2.0781    0.4875 H       1  UNL1        0.0284
     36 H           3.9529    0.7030    0.2450 H       1  UNL1        0.0540
     37 H           2.8973   -0.3012    2.3337 H       1  UNL1        0.0636
     38 H           1.2020    0.1578    4.0209 H       1  UNL1        0.0618
     39 H          -1.1219    0.1773    3.4480 H       1  UNL1        0.0625
     40 H          -2.1979   -0.5807   -0.9200 H       1  UNL1        0.1731
     41 H          -4.6236   -1.2573   -0.7741 H       1  UNL1        0.1732
     42 H          -6.6697   -1.2765   -0.9286 H       1  UNL1        0.0640
     43 H          -9.0770   -1.1269   -1.1943 H       1  UNL1        0.0619
     44 H         -10.2114    0.8969   -0.5303 H       1  UNL1        0.0633
     45 H          -8.9349    2.7536    0.3954 H       1  UNL1        0.0830
     46 H          -0.1806   -0.7021   -0.4963 H       1  UNL1        0.0644
     47 H           5.0288   -1.2889   -1.9533 H       1  UNL1        0.0286
     48 H           4.5511    0.2681   -2.3613 H       1  UNL1        0.0286
@<TRIPOS>BOND
     1     1     2    1
     2     2     3    1
     3     2    27    1
     4     3     4    1
     5     4     5    1
     6     5     6    1
     7     5    27    1
     8     6     7    2
     9     6     8    2
    10     6     9    1
    11     9    10   ar
    12     9    26   ar
    13    10    11   ar
    14    11    12   ar
    15    12    13   ar
    16    13    14    1
    17    13    26   ar
    18    14    15    2
    19    14    16   am
    20    16    17    1
    21    17    18   am
    22    18    19    2
    23    18    20    1
    24    20    21   ar
    25    20    25   ar
    26    21    22   ar
    27    22    23   ar
    28    23    24   ar
    29    24    25   ar
    30     1    28    1
    31     1    29    1
    32     1    30    1
    33     2    31    1
    34     3    32    1
    35     3    33    1
    36     4    34    1
    37     4    35    1
    38     5    36    1
    39    10    37    1
    40    11    38    1
    41    12    39    1
    42    16    40    1
    43    17    41    1
    44    21    42    1
    45    22    43    1
    46    23    44    1
    47    24    45    1
    48    26    46    1
    49    27    47    1
    50    27    48    1
@<TRIPOS>MOLECULE
../data/bude_mols_rdkit_confs2/molecule_87.pdb
 48 50 0 0 0
SMALL
GASTEIGER

@<TRIPOS>ATOM
      1  C1        -5.9400   -2.1680   -0.9640 C.3     1  UNL1       -0.0624
      2  C2        -4.7880   -1.3130   -1.4010 C.3     1  UNL1       -0.0421
      3  C3        -5.1250    0.1750   -1.1670 C.3     1  UNL1       -0.0487
      4  C4        -5.2180    0.1620    0.3380 C.3     1  UNL1       -0.0301
      5  C5        -4.0390   -0.7600    0.7620 C.3     1  UNL1        0.0822
      6  S1        -2.8190    0.1410    1.6400 S.O2    1  UNL1       -0.0002
      7  O1        -3.5480    0.9540    2.7080 O.2     1  UNL1       -0.1691
      8  O2        -1.9460   -0.8200    2.4540 O.2     1  UNL1       -0.1691
      9  C6        -1.8370    1.1900    0.6910 C.ar    1  UNL1        0.0892
     10  C7        -2.3520    2.2710    0.0320 C.ar    1  UNL1       -0.0368
     11  C8        -1.5090    3.1240   -0.6850 C.ar    1  UNL1       -0.0592
     12  C9        -0.1660    2.8820   -0.7280 C.ar    1  UNL1       -0.0495
     13  C10        0.3430    1.7920   -0.0600 C.ar    1  UNL1        0.0400
     14  C11        1.7690    1.6020   -0.0720 C.2     1  UNL1        0.2602
     15  O3         2.5110    2.6120   -0.2520 O.2     1  UNL1       -0.2687
     16  N1         2.4200    0.3520    0.1080 N.am    1  UNL1       -0.2301
     17  N2         3.8120    0.3140    0.0840 N.am    1  UNL1       -0.2289
     18  C12        4.6050   -0.8590    0.0370 C.2     1  UNL1        0.2784
     19  O4         4.0020   -1.9590    0.0120 O.2     1  UNL1       -0.2670
     20  C13        6.0710   -0.7840    0.0220 C.ar    1  UNL1        0.1268
     21  C14        6.8260   -1.9000    0.1080 C.ar    1  UNL1       -0.0311
     22  C15        8.1890   -1.7960    0.0790 C.ar    1  UNL1       -0.0582
     23  C16        8.7800   -0.5540   -0.0400 C.ar    1  UNL1       -0.0436
     24  C17        7.9880    0.5820   -0.1280 C.ar    1  UNL1        0.0284
     25  N3         6.6710    0.4080   -0.0920 N.ar    1  UNL1       -0.2503
     26  C18       -0.4690    0.9520    0.6400 C.ar    1  UNL1       -0.0247
     27  C19       -3.5710   -1.4370   -0.4870 C.3     1  UNL1       -0.0277
     28 H          -6.7580   -2.0376   -1.6413 H       1  UNL1        0.0232
     29 H          -6.2435   -1.8812    0.0212 H       1  UNL1        0.0232
     30 H          -5.6404   -3.1952   -0.9600 H       1  UNL1        0.0232
     31 H          -4.6043   -1.6161   -2.4106 H       1  UNL1        0.0299
     32 H          -6.0517    0.4531   -1.6238 H       1  UNL1        0.0268
     33 H          -4.4283    0.8749   -1.5789 H       1  UNL1        0.0268
     34 H          -6.1551   -0.2414    0.6606 H       1  UNL1        0.0284
     35 H          -5.1608    1.1396    0.7693 H       1  UNL1        0.0284
     36 H          -4.3289   -1.5153    1.4623 H       1  UNL1        0.0540
     37 H          -3.3665    2.4578    0.0641 H       1  UNL1        0.0636
     38 H          -1.9021    3.9381   -1.1828 H       1  UNL1        0.0618
     39 H           0.4605    3.5097   -1.2557 H       1  UNL1        0.0625
     40 H           1.8976   -0.4708    0.2469 H       1  UNL1        0.1731
     41 H           4.2858    1.1768    0.1012 H       1  UNL1        0.1732
     42 H           6.3773   -2.8253    0.1950 H       1  UNL1        0.0640
     43 H           8.7742   -2.6434    0.1459 H       1  UNL1        0.0619
     44 H           9.8084   -0.4707   -0.0635 H       1  UNL1        0.0633
     45 H           8.4041    1.5221   -0.2176 H       1  UNL1        0.0830
     46 H          -0.0682    0.1386    1.1326 H       1  UNL1        0.0644
     47 H          -2.7214   -0.9373   -0.9034 H       1  UNL1        0.0286
     48 H          -3.2524   -2.4468   -0.3330 H       1  UNL1        0.0286
@<TRIPOS>BOND
     1     1     2    1
     2     2     3    1
     3     2    27    1
     4     3     4    1
     5     4     5    1
     6     5     6    1
     7     5    27    1
     8     6     7    2
     9     6     8    2
    10     6     9    1
    11     9    10   ar
    12     9    26   ar
    13    10    11   ar
    14    11    12   ar
    15    12    13   ar
    16    13    14    1
    17    13    26   ar
    18    14    15    2
    19    14    16   am
    20    16    17    1
    21    17    18   am
    22    18    19    2
    23    18    20    1
    24    20    21   ar
    25    20    25   ar
    26    21    22   ar
    27    22    23   ar
    28    23    24   ar
    29    24    25   ar
    30     1    28    1
    31     1    29    1
    32     1    30    1
    33     2    31    1
    34     3    32    1
    35     3    33    1
    36     4    34    1
    37     4    35    1
    38     5    36    1
    39    10    37    1
    40    11    38    1
    41    12    39    1
    42    16    40    1
    43    17    41    1
    44    21    42    1
    45    22    43    1
    46    23    44    1
    47    24    45    1
    48    26    46    1
    49    27    47    1
    50    27    48    1
@<TRIPOS>MOLECULE
../data/bude_mols_rdkit_confs2/molecule_87.pdb
 48 50 0 0 0
SMALL
GASTEIGER

@<TRIPOS>ATOM
      1  C1        -6.9020   -1.0850   -0.0800 C.3     1  UNL1       -0.0624
      2  C2        -5.5700   -0.9910    0.6340 C.3     1  UNL1       -0.0421
      3  C3        -4.6880   -2.1910    0.2950 C.3     1  UNL1       -0.0487
      4  C4        -3.4660   -1.5880   -0.4190 C.3     1  UNL1       -0.0301
      5  C5        -4.0850   -0.4090   -1.0860 C.3     1  UNL1        0.0822
      6  S1        -2.9490    0.7560   -1.7680 S.O2    1  UNL1       -0.0002
      7  O1        -3.7770    1.9060   -2.3130 O.2     1  UNL1       -0.1691
      8  O2        -2.2820    0.1000   -2.9440 O.2     1  UNL1       -0.1691
      9  C6        -1.7890    1.3100   -0.5920 C.ar    1  UNL1        0.0892
     10  C7        -2.1450    2.3100    0.2860 C.ar    1  UNL1       -0.0368
     11  C8        -1.2210    2.7550    1.2240 C.ar    1  UNL1       -0.0592
     12  C9         0.0500    2.1880    1.2660 C.ar    1  UNL1       -0.0495
     13  C10        0.4220    1.1770    0.3820 C.ar    1  UNL1        0.0400
     14  C11        1.7730    0.6550    0.5150 C.2     1  UNL1        0.2602
     15  O3         2.2490    0.3430    1.6380 O.2     1  UNL1       -0.2687
     16  N1         2.5770    0.4940   -0.6430 N.am    1  UNL1       -0.2301
     17  N2         3.8930    0.0080   -0.6370 N.am    1  UNL1       -0.2289
     18  C12        4.8840    0.4890    0.2470 C.2     1  UNL1        0.2784
     19  O4         4.5460    1.4040    1.0730 O.2     1  UNL1       -0.2670
     20  C13        6.2440   -0.0180    0.2420 C.ar    1  UNL1        0.1268
     21  C14        6.7150   -0.8920   -0.6840 C.ar    1  UNL1       -0.0311
     22  C15        8.0260   -1.3660   -0.6530 C.ar    1  UNL1       -0.0582
     23  C16        8.8740   -0.9260    0.3630 C.ar    1  UNL1       -0.0436
     24  C17        8.3720   -0.0490    1.2770 C.ar    1  UNL1        0.0284
     25  N3         7.1130    0.3970    1.2340 N.ar    1  UNL1       -0.2503
     26  C18       -0.5160    0.7800   -0.5120 C.ar    1  UNL1       -0.0247
     27  C19       -4.8500    0.2240    0.0900 C.3     1  UNL1       -0.0277
     28 H          -7.4408   -1.9362    0.2807 H       1  UNL1        0.0232
     29 H          -6.7363   -1.1875   -1.1321 H       1  UNL1        0.0232
     30 H          -7.4702   -0.1978    0.1068 H       1  UNL1        0.0232
     31 H          -5.7438   -0.9460    1.6888 H       1  UNL1        0.0299
     32 H          -5.2056   -2.8693   -0.3507 H       1  UNL1        0.0268
     33 H          -4.4135   -2.7503    1.1649 H       1  UNL1        0.0268
     34 H          -3.0501   -2.2698   -1.1311 H       1  UNL1        0.0284
     35 H          -2.6474   -1.3513    0.2281 H       1  UNL1        0.0284
     36 H          -4.6652   -0.6978   -1.9374 H       1  UNL1        0.0540
     37 H          -3.0891    2.7249    0.2476 H       1  UNL1        0.0636
     38 H          -1.4761    3.5033    1.8873 H       1  UNL1        0.0618
     39 H           0.7303    2.5232    1.9659 H       1  UNL1        0.0625
     40 H           2.1839    0.7406   -1.5113 H       1  UNL1        0.1731
     41 H           4.1364   -0.6993   -1.2770 H       1  UNL1        0.1732
     42 H           6.0836   -1.2154   -1.4335 H       1  UNL1        0.0640
     43 H           8.3623   -2.0297   -1.3682 H       1  UNL1        0.0619
     44 H           9.8507   -1.2542    0.4207 H       1  UNL1        0.0633
     45 H           8.9895    0.2846    2.0336 H       1  UNL1        0.0830
     46 H          -0.2624    0.0325   -1.1768 H       1  UNL1        0.0644
     47 H          -4.1841    0.6458    0.8136 H       1  UNL1        0.0286
     48 H          -5.4894    1.0384   -0.1798 H       1  UNL1        0.0286
@<TRIPOS>BOND
     1     1     2    1
     2     2     3    1
     3     2    27    1
     4     3     4    1
     5     4     5    1
     6     5     6    1
     7     5    27    1
     8     6     7    2
     9     6     8    2
    10     6     9    1
    11     9    10   ar
    12     9    26   ar
    13    10    11   ar
    14    11    12   ar
    15    12    13   ar
    16    13    14    1
    17    13    26   ar
    18    14    15    2
    19    14    16   am
    20    16    17    1
    21    17    18   am
    22    18    19    2
    23    18    20    1
    24    20    21   ar
    25    20    25   ar
    26    21    22   ar
    27    22    23   ar
    28    23    24   ar
    29    24    25   ar
    30     1    28    1
    31     1    29    1
    32     1    30    1
    33     2    31    1
    34     3    32    1
    35     3    33    1
    36     4    34    1
    37     4    35    1
    38     5    36    1
    39    10    37    1
    40    11    38    1
    41    12    39    1
    42    16    40    1
    43    17    41    1
    44    21    42    1
    45    22    43    1
    46    23    44    1
    47    24    45    1
    48    26    46    1
    49    27    47    1
    50    27    48    1
@<TRIPOS>MOLECULE
../data/bude_mols_rdkit_confs2/molecule_87.pdb
 48 50 0 0 0
SMALL
GASTEIGER

@<TRIPOS>ATOM
      1  C1        -6.4130   -0.3410    2.5820 C.3     1  UNL1       -0.0624
      2  C2        -5.8710   -0.2490    1.2000 C.3     1  UNL1       -0.0421
      3  C3        -6.4190    0.9440    0.4330 C.3     1  UNL1       -0.0487
      4  C4        -5.2130    1.2350   -0.5020 C.3     1  UNL1       -0.0301
      5  C5        -4.1410    1.2940    0.6340 C.3     1  UNL1        0.0822
      6  S1        -2.5630    1.6920    0.0300 S.O2    1  UNL1       -0.0002
      7  O1        -1.7700    2.2480    1.2260 O.2     1  UNL1       -0.1691
      8  O2        -2.6070    2.8690   -0.9430 O.2     1  UNL1       -0.1691
      9  C6        -1.6230    0.3970   -0.6300 C.ar    1  UNL1        0.0892
     10  C7        -2.1690   -0.4700   -1.5430 C.ar    1  UNL1       -0.0368
     11  C8        -1.3450   -1.4710   -2.0670 C.ar    1  UNL1       -0.0592
     12  C9        -0.0350   -1.5890   -1.6890 C.ar    1  UNL1       -0.0495
     13  C10        0.5380   -0.7170   -0.7660 C.ar    1  UNL1        0.0400
     14  C11        1.9400   -0.8230   -0.4210 C.2     1  UNL1        0.2602
     15  O3         2.2980   -1.8510    0.2510 O.2     1  UNL1       -0.2687
     16  N1         2.8860    0.1390   -0.8000 N.am    1  UNL1       -0.2301
     17  N2         4.2430    0.1950   -0.5840 N.am    1  UNL1       -0.2289
     18  C12        5.0690   -0.6260    0.1970 C.2     1  UNL1        0.2784
     19  O4         4.5990   -1.5720    0.8340 O.2     1  UNL1       -0.2670
     20  C13        6.5230   -0.4250    0.3080 C.ar    1  UNL1        0.1268
     21  C14        7.3070   -1.2730    1.0410 C.ar    1  UNL1       -0.0311
     22  C15        8.6830   -1.0980    1.1400 C.ar    1  UNL1       -0.0582
     23  C16        9.2680   -0.0390    0.4790 C.ar    1  UNL1       -0.0436
     24  C17        8.4520    0.7970   -0.2510 C.ar    1  UNL1        0.0284
     25  N3         7.1120    0.5990   -0.3270 N.ar    1  UNL1       -0.2503
     26  C18       -0.2690    0.2460   -0.2640 C.ar    1  UNL1       -0.0247
     27  C19       -4.3530    0.0040    1.2890 C.3     1  UNL1       -0.0277
     28 H          -7.4676   -0.5168    2.5405 H       1  UNL1        0.0232
     29 H          -6.2243    0.5756    3.1009 H       1  UNL1        0.0232
     30 H          -5.9370   -1.1479    3.0988 H       1  UNL1        0.0232
     31 H          -6.1378   -1.1592    0.7048 H       1  UNL1        0.0299
     32 H          -6.6294    1.7701    1.0797 H       1  UNL1        0.0268
     33 H          -7.3484    0.7712   -0.0682 H       1  UNL1        0.0268
     34 H          -5.3108    2.1620   -1.0274 H       1  UNL1        0.0284
     35 H          -5.0388    0.5486   -1.3041 H       1  UNL1        0.0284
     36 H          -4.2304    2.0836    1.3505 H       1  UNL1        0.0540
     37 H          -3.1557   -0.3860   -1.8335 H       1  UNL1        0.0636
     38 H          -1.7335   -2.1357   -2.7542 H       1  UNL1        0.0618
     39 H           0.5416   -2.3413   -2.0971 H       1  UNL1        0.0625
     40 H           2.5184    0.9005   -1.3042 H       1  UNL1        0.1731
     41 H           4.7076    0.9265   -1.0512 H       1  UNL1        0.1732
     42 H           6.8651   -2.0645    1.5342 H       1  UNL1        0.0640
     43 H           9.2562   -1.7495    1.6985 H       1  UNL1        0.0619
     44 H          10.2860    0.1225    0.5295 H       1  UNL1        0.0633
     45 H           8.8711    1.5951   -0.7534 H       1  UNL1        0.0830
     46 H           0.1273    0.9056    0.4237 H       1  UNL1        0.0644
     47 H          -3.8134   -0.7679    0.7812 H       1  UNL1        0.0286
     48 H          -4.0065    0.0075    2.3013 H       1  UNL1        0.0286
@<TRIPOS>BOND
     1     1     2    1
     2     2     3    1
     3     2    27    1
     4     3     4    1
     5     4     5    1
     6     5     6    1
     7     5    27    1
     8     6     7    2
     9     6     8    2
    10     6     9    1
    11     9    10   ar
    12     9    26   ar
    13    10    11   ar
    14    11    12   ar
    15    12    13   ar
    16    13    14    1
    17    13    26   ar
    18    14    15    2
    19    14    16   am
    20    16    17    1
    21    17    18   am
    22    18    19    2
    23    18    20    1
    24    20    21   ar
    25    20    25   ar
    26    21    22   ar
    27    22    23   ar
    28    23    24   ar
    29    24    25   ar
    30     1    28    1
    31     1    29    1
    32     1    30    1
    33     2    31    1
    34     3    32    1
    35     3    33    1
    36     4    34    1
    37     4    35    1
    38     5    36    1
    39    10    37    1
    40    11    38    1
    41    12    39    1
    42    16    40    1
    43    17    41    1
    44    21    42    1
    45    22    43    1
    46    23    44    1
    47    24    45    1
    48    26    46    1
    49    27    47    1
    50    27    48    1
@<TRIPOS>MOLECULE
../data/bude_mols_rdkit_confs2/molecule_87.pdb
 48 50 0 0 0
SMALL
GASTEIGER

@<TRIPOS>ATOM
      1  C1        -7.5750    0.4650   -0.9470 C.3     1  UNL1       -0.0624
      2  C2        -6.6760    0.6820    0.2580 C.3     1  UNL1       -0.0421
      3  C3        -6.0980   -0.6330    0.7220 C.3     1  UNL1       -0.0487
      4  C4        -4.6300   -0.2830    0.9890 C.3     1  UNL1       -0.0301
      5  C5        -4.3280    0.5650   -0.2000 C.3     1  UNL1        0.0822
      6  S1        -2.7520    1.3010   -0.2680 S.O2    1  UNL1       -0.0002
      7  O1        -2.4820    2.2130    0.9000 O.2     1  UNL1       -0.1691
      8  O2        -2.6680    2.1400   -1.5120 O.2     1  UNL1       -0.1691
      9  C6        -1.4850    0.0840   -0.3070 C.ar    1  UNL1        0.0892
     10  C7        -1.7680   -1.1460   -0.8890 C.ar    1  UNL1       -0.0368
     11  C8        -0.7960   -2.1120   -1.0060 C.ar    1  UNL1       -0.0592
     12  C9         0.4530   -1.8130   -0.5320 C.ar    1  UNL1       -0.0495
     13  C10        0.7720   -0.6020    0.0520 C.ar    1  UNL1        0.0400
     14  C11        2.1720   -0.3620    0.4860 C.2     1  UNL1        0.2602
     15  O3         2.4420    0.0470    1.6070 O.2     1  UNL1       -0.2687
     16  N1         3.1920   -0.6220   -0.4570 N.am    1  UNL1       -0.2301
     17  N2         4.5440   -0.4810   -0.3570 N.am    1  UNL1       -0.2289
     18  C12        5.3030    0.1870    0.6160 C.2     1  UNL1        0.2784
     19  O4         4.6980    0.7580    1.5680 O.2     1  UNL1       -0.2670
     20  C13        6.7860    0.2590    0.5840 C.ar    1  UNL1        0.1268
     21  C14        7.5060   -0.3110   -0.4230 C.ar    1  UNL1       -0.0311
     22  C15        8.9010   -0.1790   -0.3690 C.ar    1  UNL1       -0.0582
     23  C16        9.5370    0.4900    0.6440 C.ar    1  UNL1       -0.0436
     24  C17        8.7450    1.0480    1.6410 C.ar    1  UNL1        0.0284
     25  N3         7.4260    0.9190    1.5840 N.ar    1  UNL1       -0.2503
     26  C18       -0.2060    0.3620    0.1710 C.ar    1  UNL1       -0.0247
     27  C19       -5.4790    1.5550   -0.1460 C.3     1  UNL1       -0.0277
     28 H          -8.4088   -0.1433   -0.6650 H       1  UNL1        0.0232
     29 H          -7.0219   -0.0247   -1.7211 H       1  UNL1        0.0232
     30 H          -7.9275    1.4102   -1.3038 H       1  UNL1        0.0232
     31 H          -7.2621    1.1396    1.0274 H       1  UNL1        0.0299
     32 H          -6.1838   -1.3813   -0.0380 H       1  UNL1        0.0268
     33 H          -6.5991   -1.0382    1.5762 H       1  UNL1        0.0268
     34 H          -4.0146   -1.1579    1.0160 H       1  UNL1        0.0284
     35 H          -4.4506    0.1921    1.9308 H       1  UNL1        0.0284
     36 H          -4.2658   -0.0091   -1.1008 H       1  UNL1        0.0540
     37 H          -2.7202   -1.3370   -1.2380 H       1  UNL1        0.0636
     38 H          -1.0006   -3.0280   -1.4351 H       1  UNL1        0.0618
     39 H           1.1930   -2.5275   -0.6150 H       1  UNL1        0.0625
     40 H           2.8750   -0.9592   -1.3259 H       1  UNL1        0.1731
     41 H           5.0649   -0.9113   -1.0731 H       1  UNL1        0.1732
     42 H           7.0437   -0.8188   -1.1934 H       1  UNL1        0.0640
     43 H           9.4696   -0.6011   -1.1197 H       1  UNL1        0.0619
     44 H          10.5652    0.5763    0.6659 H       1  UNL1        0.0633
     45 H           9.1817    1.5609    2.4228 H       1  UNL1        0.0830
     46 H           0.0053    1.2735    0.6064 H       1  UNL1        0.0644
     47 H          -5.2961    2.3162    0.5833 H       1  UNL1        0.0286
     48 H          -5.6306    2.0722   -1.0703 H       1  UNL1        0.0286
@<TRIPOS>BOND
     1     1     2    1
     2     2     3    1
     3     2    27    1
     4     3     4    1
     5     4     5    1
     6     5     6    1
     7     5    27    1
     8     6     7    2
     9     6     8    2
    10     6     9    1
    11     9    10   ar
    12     9    26   ar
    13    10    11   ar
    14    11    12   ar
    15    12    13   ar
    16    13    14    1
    17    13    26   ar
    18    14    15    2
    19    14    16   am
    20    16    17    1
    21    17    18   am
    22    18    19    2
    23    18    20    1
    24    20    21   ar
    25    20    25   ar
    26    21    22   ar
    27    22    23   ar
    28    23    24   ar
    29    24    25   ar
    30     1    28    1
    31     1    29    1
    32     1    30    1
    33     2    31    1
    34     3    32    1
    35     3    33    1
    36     4    34    1
    37     4    35    1
    38     5    36    1
    39    10    37    1
    40    11    38    1
    41    12    39    1
    42    16    40    1
    43    17    41    1
    44    21    42    1
    45    22    43    1
    46    23    44    1
    47    24    45    1
    48    26    46    1
    49    27    47    1
    50    27    48    1
@<TRIPOS>MOLECULE
../data/bude_mols_rdkit_confs2/molecule_87.pdb
 48 50 0 0 0
SMALL
GASTEIGER

@<TRIPOS>ATOM
      1  C1        -5.4420   -2.3100    0.4940 C.3     1  UNL1       -0.0624
      2  C2        -4.5520   -1.4900   -0.4430 C.3     1  UNL1       -0.0421
      3  C3        -5.3620   -0.3390   -0.9480 C.3     1  UNL1       -0.0487
      4  C4        -4.8190    0.9050   -0.2810 C.3     1  UNL1       -0.0301
      5  C5        -4.0240    0.3960    0.8640 C.3     1  UNL1        0.0822
      6  S1        -2.8130    1.5320    1.4520 S.O2    1  UNL1       -0.0002
      7  O1        -2.0560    0.8950    2.5860 O.2     1  UNL1       -0.1691
      8  O2        -3.4810    2.7660    1.9840 O.2     1  UNL1       -0.1691
      9  C6        -1.6880    2.0220    0.2190 C.ar    1  UNL1        0.0892
     10  C7        -2.0160    3.0670   -0.6060 C.ar    1  UNL1       -0.0368
     11  C8        -1.0810    3.4200   -1.5840 C.ar    1  UNL1       -0.0592
     12  C9         0.1210    2.7420   -1.7100 C.ar    1  UNL1       -0.0495
     13  C10        0.4430    1.6930   -0.8760 C.ar    1  UNL1        0.0400
     14  C11        1.7040    0.9840   -1.0400 C.2     1  UNL1        0.2602
     15  O3         2.3080    0.8590   -2.1370 O.2     1  UNL1       -0.2687
     16  N1         2.2830    0.3970    0.1400 N.am    1  UNL1       -0.2301
     17  N2         3.4920   -0.3080    0.0720 N.am    1  UNL1       -0.2289
     18  C12        4.6880    0.0510    0.7140 C.2     1  UNL1        0.2784
     19  O4         4.7010    1.1030    1.4240 O.2     1  UNL1       -0.2670
     20  C13        5.8800   -0.7700    0.5600 C.ar    1  UNL1        0.1268
     21  C14        5.9640   -1.9130   -0.1960 C.ar    1  UNL1       -0.0311
     22  C15        7.1510   -2.6520   -0.2950 C.ar    1  UNL1       -0.0582
     23  C16        8.2760   -2.2430    0.3740 C.ar    1  UNL1       -0.0436
     24  C17        8.1680   -1.0940    1.1260 C.ar    1  UNL1        0.0284
     25  N3         7.0260   -0.3980    1.2100 N.ar    1  UNL1       -0.2503
     26  C18       -0.4950    1.3560    0.0890 C.ar    1  UNL1       -0.0247
     27  C19       -3.4460   -0.8960    0.3930 C.3     1  UNL1       -0.0277
     28 H          -6.2412   -2.7485   -0.0663 H       1  UNL1        0.0232
     29 H          -5.8460   -1.6715    1.2516 H       1  UNL1        0.0232
     30 H          -4.8611   -3.0832    0.9517 H       1  UNL1        0.0232
     31 H          -4.1763   -2.0950   -1.2416 H       1  UNL1        0.0299
     32 H          -6.3923   -0.4738   -0.6927 H       1  UNL1        0.0268
     33 H          -5.2969   -0.2624   -2.0133 H       1  UNL1        0.0268
     34 H          -5.6174    1.5299    0.0610 H       1  UNL1        0.0284
     35 H          -4.2341    1.5023   -0.9488 H       1  UNL1        0.0284
     36 H          -4.6414    0.2566    1.7267 H       1  UNL1        0.0540
     37 H          -2.9120    3.5700   -0.5095 H       1  UNL1        0.0636
     38 H          -1.2903    4.2013   -2.2249 H       1  UNL1        0.0618
     39 H           0.7885    3.0283   -2.4431 H       1  UNL1        0.0625
     40 H           1.8238    0.4921    1.0056 H       1  UNL1        0.1731
     41 H           3.5039   -1.1272   -0.4740 H       1  UNL1        0.1732
     42 H           5.1281   -2.2378   -0.7067 H       1  UNL1        0.0640
     43 H           7.1783   -3.5064   -0.8731 H       1  UNL1        0.0619
     44 H           9.1610   -2.7707    0.3168 H       1  UNL1        0.0633
     45 H           8.9955   -0.7574    1.6428 H       1  UNL1        0.0830
     46 H          -0.2882    0.5762    0.7325 H       1  UNL1        0.0644
     47 H          -2.5679   -0.7306   -0.1956 H       1  UNL1        0.0286
     48 H          -3.1405   -1.5341    1.1957 H       1  UNL1        0.0286
@<TRIPOS>BOND
     1     1     2    1
     2     2     3    1
     3     2    27    1
     4     3     4    1
     5     4     5    1
     6     5     6    1
     7     5    27    1
     8     6     7    2
     9     6     8    2
    10     6     9    1
    11     9    10   ar
    12     9    26   ar
    13    10    11   ar
    14    11    12   ar
    15    12    13   ar
    16    13    14    1
    17    13    26   ar
    18    14    15    2
    19    14    16   am
    20    16    17    1
    21    17    18   am
    22    18    19    2
    23    18    20    1
    24    20    21   ar
    25    20    25   ar
    26    21    22   ar
    27    22    23   ar
    28    23    24   ar
    29    24    25   ar
    30     1    28    1
    31     1    29    1
    32     1    30    1
    33     2    31    1
    34     3    32    1
    35     3    33    1
    36     4    34    1
    37     4    35    1
    38     5    36    1
    39    10    37    1
    40    11    38    1
    41    12    39    1
    42    16    40    1
    43    17    41    1
    44    21    42    1
    45    22    43    1
    46    23    44    1
    47    24    45    1
    48    26    46    1
    49    27    47    1
    50    27    48    1
@<TRIPOS>MOLECULE
../data/bude_mols_rdkit_confs2/molecule_87.pdb
 48 50 0 0 0
SMALL
GASTEIGER

@<TRIPOS>ATOM
      1  C1        -7.4080    0.4400   -1.3840 C.3     1  UNL1       -0.0624
      2  C2        -6.2620    0.4500   -0.3930 C.3     1  UNL1       -0.0421
      3  C3        -5.9070   -0.9450   -0.0440 C.3     1  UNL1       -0.0487
      4  C4        -4.5080   -1.1490   -0.4950 C.3     1  UNL1       -0.0301
      5  C5        -3.8820    0.1780   -0.6330 C.3     1  UNL1        0.0822
      6  S1        -3.1290    0.6920    0.8890 S.O2    1  UNL1       -0.0002
      7  O1        -4.0320    0.4460    2.0650 O.2     1  UNL1       -0.1691
      8  O2        -2.7860    2.1460    0.8700 O.2     1  UNL1       -0.1691
      9  C6        -1.6650   -0.2540    1.1300 C.ar    1  UNL1        0.0892
     10  C7        -1.6520   -1.4580    1.7960 C.ar    1  UNL1       -0.0368
     11  C8        -0.4670   -2.1810    1.9600 C.ar    1  UNL1       -0.0592
     12  C9         0.6940   -1.6420    1.4280 C.ar    1  UNL1       -0.0495
     13  C10        0.7110   -0.4310    0.7510 C.ar    1  UNL1        0.0400
     14  C11        1.9970    0.0500    0.2090 C.2     1  UNL1        0.2602
     15  O3         2.1640    1.3000    0.0710 O.2     1  UNL1       -0.2687
     16  N1         3.0430   -0.8170   -0.1650 N.am    1  UNL1       -0.2301
     17  N2         4.2760   -0.4250   -0.6830 N.am    1  UNL1       -0.2289
     18  C12        5.2920    0.0990    0.1400 C.2     1  UNL1        0.2784
     19  O4         5.0440    0.2060    1.3660 O.2     1  UNL1       -0.2670
     20  C13        6.5990    0.5120   -0.3610 C.ar    1  UNL1        0.1268
     21  C14        7.5520    0.9440    0.5350 C.ar    1  UNL1       -0.0311
     22  C15        8.8060    1.3510    0.1270 C.ar    1  UNL1       -0.0582
     23  C16        9.1030    1.3190   -1.2180 C.ar    1  UNL1       -0.0436
     24  C17        8.1250    0.8820   -2.0860 C.ar    1  UNL1        0.0284
     25  N3         6.9120    0.4920   -1.6620 N.ar    1  UNL1       -0.2503
     26  C18       -0.4600    0.2410    0.6120 C.ar    1  UNL1       -0.0247
     27  C19       -5.0490    1.1110   -0.9790 C.3     1  UNL1       -0.0277
     28 H          -8.2581   -0.0359   -0.9415 H       1  UNL1        0.0232
     29 H          -7.1155   -0.0970   -2.2621 H       1  UNL1        0.0232
     30 H          -7.6597    1.4458   -1.6483 H       1  UNL1        0.0232
     31 H          -6.5745    0.9942    0.4737 H       1  UNL1        0.0299
     32 H          -6.5602   -1.6289   -0.5445 H       1  UNL1        0.0268
     33 H          -6.0037   -1.1174    1.0076 H       1  UNL1        0.0268
     34 H          -4.4994   -1.6555   -1.4375 H       1  UNL1        0.0284
     35 H          -3.9700   -1.7447    0.2125 H       1  UNL1        0.0284
     36 H          -3.1076    0.1804   -1.3714 H       1  UNL1        0.0540
     37 H          -2.5326   -1.8338    2.1812 H       1  UNL1        0.0636
     38 H          -0.4568   -3.0840    2.4594 H       1  UNL1        0.0618
     39 H           1.5790   -2.1610    1.5397 H       1  UNL1        0.0625
     40 H           2.8896   -1.7827   -0.0505 H       1  UNL1        0.1731
     41 H           4.4412   -0.5167   -1.6492 H       1  UNL1        0.1732
     42 H           7.3215    0.9639    1.5407 H       1  UNL1        0.0640
     43 H           9.5058    1.6722    0.8141 H       1  UNL1        0.0619
     44 H          10.0293    1.6132   -1.5652 H       1  UNL1        0.0633
     45 H           8.3323    0.8536   -3.0966 H       1  UNL1        0.0830
     46 H          -0.4634    1.1428    0.1103 H       1  UNL1        0.0644
     47 H          -4.8999    2.0770   -0.5437 H       1  UNL1        0.0286
     48 H          -5.1438    1.2616   -2.0341 H       1  UNL1        0.0286
@<TRIPOS>BOND
     1     1     2    1
     2     2     3    1
     3     2    27    1
     4     3     4    1
     5     4     5    1
     6     5     6    1
     7     5    27    1
     8     6     7    2
     9     6     8    2
    10     6     9    1
    11     9    10   ar
    12     9    26   ar
    13    10    11   ar
    14    11    12   ar
    15    12    13   ar
    16    13    14    1
    17    13    26   ar
    18    14    15    2
    19    14    16   am
    20    16    17    1
    21    17    18   am
    22    18    19    2
    23    18    20    1
    24    20    21   ar
    25    20    25   ar
    26    21    22   ar
    27    22    23   ar
    28    23    24   ar
    29    24    25   ar
    30     1    28    1
    31     1    29    1
    32     1    30    1
    33     2    31    1
    34     3    32    1
    35     3    33    1
    36     4    34    1
    37     4    35    1
    38     5    36    1
    39    10    37    1
    40    11    38    1
    41    12    39    1
    42    16    40    1
    43    17    41    1
    44    21    42    1
    45    22    43    1
    46    23    44    1
    47    24    45    1
    48    26    46    1
    49    27    47    1
    50    27    48    1
@<TRIPOS>MOLECULE
../data/bude_mols_rdkit_confs2/molecule_87.pdb
 48 50 0 0 0
SMALL
GASTEIGER

@<TRIPOS>ATOM
      1  C1        -6.5730    1.7800    1.2970 C.3     1  UNL1       -0.0624
      2  C2        -5.5450    0.8660    0.7110 C.3     1  UNL1       -0.0421
      3  C3        -5.9020    0.3970   -0.7050 C.3     1  UNL1       -0.0487
      4  C4        -4.5830   -0.3290   -1.0400 C.3     1  UNL1       -0.0301
      5  C5        -3.5060    0.5040   -0.3990 C.3     1  UNL1        0.0822
      6  S1        -2.5630   -0.5340    0.6950 S.O2    1  UNL1       -0.0002
      7  O1        -3.5200   -1.4000    1.5020 O.2     1  UNL1       -0.1691
      8  O2        -1.7270    0.2720    1.6300 O.2     1  UNL1       -0.1691
      9  C6        -1.5480   -1.5770   -0.2570 C.ar    1  UNL1        0.0892
     10  C7        -1.9720   -2.7320   -0.8700 C.ar    1  UNL1       -0.0368
     11  C8        -1.1010   -3.5300   -1.5970 C.ar    1  UNL1       -0.0592
     12  C9         0.2020   -3.1340   -1.6900 C.ar    1  UNL1       -0.0495
     13  C10        0.6840   -1.9680   -1.0840 C.ar    1  UNL1        0.0400
     14  C11        2.0900   -1.6060   -1.1930 C.2     1  UNL1        0.2602
     15  O3         2.7620   -2.0880   -2.1270 O.2     1  UNL1       -0.2687
     16  N1         2.7300   -0.7310   -0.2810 N.am    1  UNL1       -0.2301
     17  N2         4.0740   -0.3530   -0.3280 N.am    1  UNL1       -0.2289
     18  C12        4.6880    0.2290    0.8040 C.2     1  UNL1        0.2784
     19  O4         3.9180    0.3670    1.8300 O.2     1  UNL1       -0.2670
     20  C13        6.0760    0.6640    0.8870 C.ar    1  UNL1        0.1268
     21  C14        6.8610    0.5670   -0.2380 C.ar    1  UNL1       -0.0311
     22  C15        8.1890    0.9760   -0.1420 C.ar    1  UNL1       -0.0582
     23  C16        8.6220    1.4480    1.0670 C.ar    1  UNL1       -0.0436
     24  C17        7.7860    1.5250    2.1740 C.ar    1  UNL1        0.0284
     25  N3         6.5200    1.1290    2.0620 N.ar    1  UNL1       -0.2503
     26  C18       -0.1990   -1.2140   -0.3820 C.ar    1  UNL1       -0.0247
     27  C19       -4.2450    1.5760    0.4120 C.3     1  UNL1       -0.0277
     28 H          -7.4707    1.2304    1.4894 H       1  UNL1        0.0232
     29 H          -6.7804    2.5719    0.6080 H       1  UNL1        0.0232
     30 H          -6.2036    2.1917    2.2129 H       1  UNL1        0.0232
     31 H          -5.4848    0.0878    1.4429 H       1  UNL1        0.0299
     32 H          -6.0910    1.2167   -1.3663 H       1  UNL1        0.0268
     33 H          -6.7923   -0.1903   -0.7910 H       1  UNL1        0.0268
     34 H          -4.4396   -0.3787   -2.0992 H       1  UNL1        0.0284
     35 H          -4.5773   -1.3374   -0.6824 H       1  UNL1        0.0284
     36 H          -2.8410    0.9408   -1.1144 H       1  UNL1        0.0540
     37 H          -2.9618   -3.0120   -0.7874 H       1  UNL1        0.0636
     38 H          -1.4278   -4.3960   -2.0533 H       1  UNL1        0.0618
     39 H           0.8592   -3.7187   -2.2297 H       1  UNL1        0.0625
     40 H           2.1817   -0.3582    0.4468 H       1  UNL1        0.1731
     41 H           4.5948   -0.4924   -1.1518 H       1  UNL1        0.1732
     42 H           6.4785    0.2029   -1.1247 H       1  UNL1        0.0640
     43 H           8.8238    0.9248   -0.9540 H       1  UNL1        0.0619
     44 H           9.6022    1.7571    1.1597 H       1  UNL1        0.0633
     45 H           8.1425    1.8852    3.0730 H       1  UNL1        0.0830
     46 H           0.1314   -0.3487    0.0730 H       1  UNL1        0.0644
     47 H          -3.7171    1.8235    1.3092 H       1  UNL1        0.0286
     48 H          -4.3597    2.5115   -0.0946 H       1  UNL1        0.0286
@<TRIPOS>BOND
     1     1     2    1
     2     2     3    1
     3     2    27    1
     4     3     4    1
     5     4     5    1
     6     5     6    1
     7     5    27    1
     8     6     7    2
     9     6     8    2
    10     6     9    1
    11     9    10   ar
    12     9    26   ar
    13    10    11   ar
    14    11    12   ar
    15    12    13   ar
    16    13    14    1
    17    13    26   ar
    18    14    15    2
    19    14    16   am
    20    16    17    1
    21    17    18   am
    22    18    19    2
    23    18    20    1
    24    20    21   ar
    25    20    25   ar
    26    21    22   ar
    27    22    23   ar
    28    23    24   ar
    29    24    25   ar
    30     1    28    1
    31     1    29    1
    32     1    30    1
    33     2    31    1
    34     3    32    1
    35     3    33    1
    36     4    34    1
    37     4    35    1
    38     5    36    1
    39    10    37    1
    40    11    38    1
    41    12    39    1
    42    16    40    1
    43    17    41    1
    44    21    42    1
    45    22    43    1
    46    23    44    1
    47    24    45    1
    48    26    46    1
    49    27    47    1
    50    27    48    1
@<TRIPOS>MOLECULE
../data/bude_mols_rdkit_confs2/molecule_87.pdb
 48 50 0 0 0
SMALL
GASTEIGER

@<TRIPOS>ATOM
      1  C1        -7.5610    0.9950    0.3550 C.3     1  UNL1       -0.0624
      2  C2        -6.0930    0.7770    0.0170 C.3     1  UNL1       -0.0421
      3  C3        -5.1720    1.4270    1.0240 C.3     1  UNL1       -0.0487
      4  C4        -4.1030    0.3720    1.3200 C.3     1  UNL1       -0.0301
      5  C5        -4.2480   -0.6890    0.2930 C.3     1  UNL1        0.0822
      6  S1        -3.4140   -0.3510   -1.2380 S.O2    1  UNL1       -0.0002
      7  O1        -3.4500    1.1260   -1.4930 O.2     1  UNL1       -0.1691
      8  O2        -4.0770   -1.1040   -2.3560 O.2     1  UNL1       -0.1691
      9  C6        -1.7580   -0.8850   -1.0940 C.ar    1  UNL1        0.0892
     10  C7        -1.4380   -2.1900   -1.5190 C.ar    1  UNL1       -0.0368
     11  C8        -0.1680   -2.7080   -1.4610 C.ar    1  UNL1       -0.0592
     12  C9         0.8530   -1.9260   -0.9640 C.ar    1  UNL1       -0.0495
     13  C10        0.5680   -0.6310   -0.5360 C.ar    1  UNL1        0.0400
     14  C11        1.7050    0.1500   -0.0450 C.2     1  UNL1        0.2602
     15  O3         1.6170    0.9770    0.8800 O.2     1  UNL1       -0.2687
     16  N1         2.9990   -0.0570   -0.6640 N.am    1  UNL1       -0.2301
     17  N2         4.1720    0.5830   -0.2960 N.am    1  UNL1       -0.2289
     18  C12        5.3980   -0.1110   -0.1820 C.2     1  UNL1        0.2784
     19  O4         5.3170   -1.3710   -0.4460 O.2     1  UNL1       -0.2670
     20  C13        6.6710    0.4200    0.1840 C.ar    1  UNL1        0.1268
     21  C14        7.7500   -0.4650    0.2850 C.ar    1  UNL1       -0.0311
     22  C15        8.9710    0.0780    0.6230 C.ar    1  UNL1       -0.0582
     23  C16        9.0640    1.4480    0.8430 C.ar    1  UNL1       -0.0436
     24  C17        7.9690    2.2590    0.7280 C.ar    1  UNL1        0.0284
     25  N3         6.7980    1.7280    0.4010 N.ar    1  UNL1       -0.2503
     26  C18       -0.7110   -0.1390   -0.6060 C.ar    1  UNL1       -0.0247
     27  C19       -5.7850   -0.6940    0.0330 C.3     1  UNL1       -0.0277
     28 H          -7.7780    2.0427    0.3430 H       1  UNL1        0.0232
     29 H          -7.7655    0.5995    1.3280 H       1  UNL1        0.0232
     30 H          -8.1715    0.4961   -0.3684 H       1  UNL1        0.0232
     31 H          -5.9319    1.2119   -0.9472 H       1  UNL1        0.0299
     32 H          -5.7075    1.6804    1.9150 H       1  UNL1        0.0268
     33 H          -4.7479    2.3366    0.6530 H       1  UNL1        0.0268
     34 H          -4.2519   -0.0387    2.2968 H       1  UNL1        0.0284
     35 H          -3.1233    0.8012    1.2914 H       1  UNL1        0.0284
     36 H          -3.8214   -1.6083    0.6361 H       1  UNL1        0.0540
     37 H          -2.1946   -2.7847   -1.8917 H       1  UNL1        0.0636
     38 H           0.0199   -3.6696   -1.7850 H       1  UNL1        0.0618
     39 H           1.8153   -2.2948   -0.9097 H       1  UNL1        0.0625
     40 H           3.0488   -0.7036   -1.4047 H       1  UNL1        0.1731
     41 H           4.1506    1.5492   -0.1085 H       1  UNL1        0.1732
     42 H           7.6370   -1.4765    0.1145 H       1  UNL1        0.0640
     43 H           9.8047   -0.5238    0.7116 H       1  UNL1        0.0619
     44 H           9.9754    1.8598    1.0975 H       1  UNL1        0.0633
     45 H           8.0527    3.2741    0.8939 H       1  UNL1        0.0830
     46 H          -0.8933    0.8235   -0.2814 H       1  UNL1        0.0644
     47 H          -6.0210   -1.1526   -0.9045 H       1  UNL1        0.0286
     48 H          -6.3470   -1.2488    0.7550 H       1  UNL1        0.0286
@<TRIPOS>BOND
     1     1     2    1
     2     2     3    1
     3     2    27    1
     4     3     4    1
     5     4     5    1
     6     5     6    1
     7     5    27    1
     8     6     7    2
     9     6     8    2
    10     6     9    1
    11     9    10   ar
    12     9    26   ar
    13    10    11   ar
    14    11    12   ar
    15    12    13   ar
    16    13    14    1
    17    13    26   ar
    18    14    15    2
    19    14    16   am
    20    16    17    1
    21    17    18   am
    22    18    19    2
    23    18    20    1
    24    20    21   ar
    25    20    25   ar
    26    21    22   ar
    27    22    23   ar
    28    23    24   ar
    29    24    25   ar
    30     1    28    1
    31     1    29    1
    32     1    30    1
    33     2    31    1
    34     3    32    1
    35     3    33    1
    36     4    34    1
    37     4    35    1
    38     5    36    1
    39    10    37    1
    40    11    38    1
    41    12    39    1
    42    16    40    1
    43    17    41    1
    44    21    42    1
    45    22    43    1
    46    23    44    1
    47    24    45    1
    48    26    46    1
    49    27    47    1
    50    27    48    1
@<TRIPOS>MOLECULE
../data/bude_mols_rdkit_confs2/molecule_87.pdb
 48 50 0 0 0
SMALL
GASTEIGER

@<TRIPOS>ATOM
      1  C1        -7.1380    1.5050    0.4760 C.3     1  UNL1       -0.0624
      2  C2        -5.6810    1.1330    0.2800 C.3     1  UNL1       -0.0421
      3  C3        -5.0250    0.7160    1.5650 C.3     1  UNL1       -0.0487
      4  C4        -3.7370    0.0620    1.0130 C.3     1  UNL1       -0.0301
      5  C5        -4.1920   -0.6590   -0.2170 C.3     1  UNL1        0.0822
      6  S1        -3.1210   -0.6180   -1.5910 S.O2    1  UNL1       -0.0002
      7  O1        -3.8130   -1.3460   -2.7270 O.2     1  UNL1       -0.1691
      8  O2        -2.8350    0.7920   -2.0510 O.2     1  UNL1       -0.1691
      9  C6        -1.5860   -1.4170   -1.3490 C.ar    1  UNL1        0.0892
     10  C7        -1.5200   -2.8170   -1.3460 C.ar    1  UNL1       -0.0368
     11  C8        -0.3140   -3.4630   -1.1950 C.ar    1  UNL1       -0.0592
     12  C9         0.8540   -2.7430   -1.0440 C.ar    1  UNL1       -0.0495
     13  C10        0.8370   -1.3760   -1.0420 C.ar    1  UNL1        0.0400
     14  C11        2.0760   -0.5760   -0.9190 C.2     1  UNL1        0.2602
     15  O3         1.9670    0.6640   -0.8130 O.2     1  UNL1       -0.2687
     16  N1         3.3300   -1.1730   -0.9230 N.am    1  UNL1       -0.2301
     17  N2         4.4960   -0.4110   -0.8180 N.am    1  UNL1       -0.2289
     18  C12        4.8430    0.2610    0.3670 C.2     1  UNL1        0.2784
     19  O4         4.0680    0.1870    1.3740 O.2     1  UNL1       -0.2670
     20  C13        6.0580    1.0420    0.4970 C.ar    1  UNL1        0.1268
     21  C14        6.9280    1.2110   -0.5390 C.ar    1  UNL1       -0.0311
     22  C15        8.1060    1.9430   -0.4180 C.ar    1  UNL1       -0.0582
     23  C16        8.3810    2.5060    0.7970 C.ar    1  UNL1       -0.0436
     24  C17        7.4820    2.3200    1.8340 C.ar    1  UNL1        0.0284
     25  N3         6.3740    1.6220    1.6890 N.ar    1  UNL1       -0.2503
     26  C18       -0.3910   -0.7510   -1.1950 C.ar    1  UNL1       -0.0247
     27  C19       -5.5110   -0.0450   -0.6250 C.3     1  UNL1       -0.0277
     28 H          -7.2056    2.3501    1.1287 H       1  UNL1        0.0232
     29 H          -7.6623    0.6781    0.9076 H       1  UNL1        0.0232
     30 H          -7.5741    1.7492   -0.4701 H       1  UNL1        0.0232
     31 H          -5.2387    2.0172   -0.1292 H       1  UNL1        0.0299
     32 H          -5.6247    0.0151    2.1072 H       1  UNL1        0.0268
     33 H          -4.8621    1.5091    2.2645 H       1  UNL1        0.0268
     34 H          -3.3241   -0.6229    1.7239 H       1  UNL1        0.0284
     35 H          -2.9681    0.7776    0.8088 H       1  UNL1        0.0284
     36 H          -4.2439   -1.6935    0.0515 H       1  UNL1        0.0540
     37 H          -2.3846   -3.3692   -1.4582 H       1  UNL1        0.0636
     38 H          -0.2827   -4.4945   -1.1947 H       1  UNL1        0.0618
     39 H           1.7501   -3.2423   -0.9314 H       1  UNL1        0.0625
     40 H           3.3984   -2.1520   -1.0013 H       1  UNL1        0.1731
     41 H           5.0931   -0.3425   -1.5978 H       1  UNL1        0.1732
     42 H           6.7044    0.7791   -1.4492 H       1  UNL1        0.0640
     43 H           8.7489    2.0566   -1.2173 H       1  UNL1        0.0619
     44 H           9.2411    3.0584    0.9386 H       1  UNL1        0.0633
     45 H           7.6872    2.7430    2.7527 H       1  UNL1        0.0830
     46 H          -0.4106    0.2808   -1.1933 H       1  UNL1        0.0644
     47 H          -5.4809    0.2670   -1.6480 H       1  UNL1        0.0286
     48 H          -6.3218   -0.7382   -0.5418 H       1  UNL1        0.0286
@<TRIPOS>BOND
     1     1     2    1
     2     2     3    1
     3     2    27    1
     4     3     4    1
     5     4     5    1
     6     5     6    1
     7     5    27    1
     8     6     7    2
     9     6     8    2
    10     6     9    1
    11     9    10   ar
    12     9    26   ar
    13    10    11   ar
    14    11    12   ar
    15    12    13   ar
    16    13    14    1
    17    13    26   ar
    18    14    15    2
    19    14    16   am
    20    16    17    1
    21    17    18   am
    22    18    19    2
    23    18    20    1
    24    20    21   ar
    25    20    25   ar
    26    21    22   ar
    27    22    23   ar
    28    23    24   ar
    29    24    25   ar
    30     1    28    1
    31     1    29    1
    32     1    30    1
    33     2    31    1
    34     3    32    1
    35     3    33    1
    36     4    34    1
    37     4    35    1
    38     5    36    1
    39    10    37    1
    40    11    38    1
    41    12    39    1
    42    16    40    1
    43    17    41    1
    44    21    42    1
    45    22    43    1
    46    23    44    1
    47    24    45    1
    48    26    46    1
    49    27    47    1
    50    27    48    1
@<TRIPOS>MOLECULE
../data/bude_mols_rdkit_confs2/molecule_87.pdb
 48 50 0 0 0
SMALL
GASTEIGER

@<TRIPOS>ATOM
      1  C1        -6.2030   -2.6790   -0.1670 C.3     1  UNL1       -0.0624
      2  C2        -5.2070   -1.5800    0.1740 C.3     1  UNL1       -0.0421
      3  C3        -3.8260   -1.8860   -0.3220 C.3     1  UNL1       -0.0487
      4  C4        -3.3540   -0.6820   -1.1130 C.3     1  UNL1       -0.0301
      5  C5        -4.2520    0.4200   -0.6210 C.3     1  UNL1        0.0822
      6  S1        -3.6120    1.0530    0.8860 S.O2    1  UNL1       -0.0002
      7  O1        -3.3680   -0.0720    1.8770 O.2     1  UNL1       -0.1691
      8  O2        -4.5750    2.0060    1.5200 O.2     1  UNL1       -0.1691
      9  C6        -2.0610    1.7880    0.5810 C.ar    1  UNL1        0.0892
     10  C7        -1.9840    3.1220    0.2310 C.ar    1  UNL1       -0.0368
     11  C8        -0.7820    3.7440   -0.0160 C.ar    1  UNL1       -0.0592
     12  C9         0.4000    3.0400    0.0810 C.ar    1  UNL1       -0.0495
     13  C10        0.3670    1.7100    0.4260 C.ar    1  UNL1        0.0400
     14  C11        1.5890    0.9270    0.5480 C.2     1  UNL1        0.2602
     15  O3         1.4970   -0.3420    0.7240 O.2     1  UNL1       -0.2687
     16  N1         2.8980    1.4610    0.4860 N.am    1  UNL1       -0.2301
     17  N2         4.0370    0.6380    0.6120 N.am    1  UNL1       -0.2289
     18  C12        4.9370    0.4400   -0.4550 C.2     1  UNL1        0.2784
     19  O4         4.7160    1.0220   -1.5680 O.2     1  UNL1       -0.2670
     20  C13        6.1240   -0.3920   -0.3890 C.ar    1  UNL1        0.1268
     21  C14        6.4750   -1.0660    0.7530 C.ar    1  UNL1       -0.0311
     22  C15        7.6140   -1.8600    0.8080 C.ar    1  UNL1       -0.0582
     23  C16        8.3950   -1.9670   -0.3060 C.ar    1  UNL1       -0.0436
     24  C17        8.0460   -1.2910   -1.4550 C.ar    1  UNL1        0.0284
     25  N3         6.9460   -0.5450   -1.4530 N.ar    1  UNL1       -0.2503
     26  C18       -0.8750    1.1110    0.6710 C.ar    1  UNL1       -0.0247
     27  C19       -5.5900   -0.2680   -0.4300 C.3     1  UNL1       -0.0277
     28 H          -5.8897   -3.5970    0.2847 H       1  UNL1        0.0232
     29 H          -6.2491   -2.8016   -1.2290 H       1  UNL1        0.0232
     30 H          -7.1704   -2.4111    0.2035 H       1  UNL1        0.0232
     31 H          -5.2188   -1.5262    1.2426 H       1  UNL1        0.0299
     32 H          -3.8461   -2.7519   -0.9503 H       1  UNL1        0.0268
     33 H          -3.1652   -2.0848    0.4957 H       1  UNL1        0.0268
     34 H          -3.4789   -0.8394   -2.1640 H       1  UNL1        0.0284
     35 H          -2.3139   -0.4702   -0.9777 H       1  UNL1        0.0284
     36 H          -4.3322    1.2547   -1.2856 H       1  UNL1        0.0540
     37 H          -2.8554    3.6692    0.1523 H       1  UNL1        0.0636
     38 H          -0.7647    4.7428   -0.2753 H       1  UNL1        0.0618
     39 H           1.3012    3.5077   -0.1038 H       1  UNL1        0.0625
     40 H           3.0166    2.4291    0.3519 H       1  UNL1        0.1731
     41 H           4.2085    0.1884    1.4709 H       1  UNL1        0.1732
     42 H           5.8790   -0.9814    1.5912 H       1  UNL1        0.0640
     43 H           7.8648   -2.3597    1.6754 H       1  UNL1        0.0619
     44 H           9.2446   -2.5525   -0.2880 H       1  UNL1        0.0633
     45 H           8.6293   -1.3628   -2.3033 H       1  UNL1        0.0830
     46 H          -0.8969    0.1127    0.9315 H       1  UNL1        0.0644
     47 H          -6.2195    0.2909    0.2305 H       1  UNL1        0.0286
     48 H          -6.1477   -0.3672   -1.3378 H       1  UNL1        0.0286
@<TRIPOS>BOND
     1     1     2    1
     2     2     3    1
     3     2    27    1
     4     3     4    1
     5     4     5    1
     6     5     6    1
     7     5    27    1
     8     6     7    2
     9     6     8    2
    10     6     9    1
    11     9    10   ar
    12     9    26   ar
    13    10    11   ar
    14    11    12   ar
    15    12    13   ar
    16    13    14    1
    17    13    26   ar
    18    14    15    2
    19    14    16   am
    20    16    17    1
    21    17    18   am
    22    18    19    2
    23    18    20    1
    24    20    21   ar
    25    20    25   ar
    26    21    22   ar
    27    22    23   ar
    28    23    24   ar
    29    24    25   ar
    30     1    28    1
    31     1    29    1
    32     1    30    1
    33     2    31    1
    34     3    32    1
    35     3    33    1
    36     4    34    1
    37     4    35    1
    38     5    36    1
    39    10    37    1
    40    11    38    1
    41    12    39    1
    42    16    40    1
    43    17    41    1
    44    21    42    1
    45    22    43    1
    46    23    44    1
    47    24    45    1
    48    26    46    1
    49    27    47    1
    50    27    48    1
@<TRIPOS>MOLECULE
../data/bude_mols_rdkit_confs2/molecule_87.pdb
 48 50 0 0 0
SMALL
GASTEIGER

@<TRIPOS>ATOM
      1  C1        -6.6750   -0.5840    0.7340 C.3     1  UNL1       -0.0624
      2  C2        -5.6240    0.3770    0.2860 C.3     1  UNL1       -0.0421
      3  C3        -5.6830    1.7200    0.9270 C.3     1  UNL1       -0.0487
      4  C4        -4.2490    2.1280    1.1140 C.3     1  UNL1       -0.0301
      5  C5        -3.3520    1.0020    0.7100 C.3     1  UNL1        0.0822
      6  S1        -2.5970    1.2920   -0.8750 S.O2    1  UNL1       -0.0002
      7  O1        -1.7580    2.5420   -0.7870 O.2     1  UNL1       -0.1691
      8  O2        -3.6630    1.5290   -1.9140 O.2     1  UNL1       -0.1691
      9  C6        -1.6040   -0.0670   -1.3770 C.ar    1  UNL1        0.0892
     10  C7        -2.1450   -1.1410   -2.0460 C.ar    1  UNL1       -0.0368
     11  C8        -1.3060   -2.1710   -2.4090 C.ar    1  UNL1       -0.0592
     12  C9         0.0390   -2.1390   -2.1160 C.ar    1  UNL1       -0.0495
     13  C10        0.6220   -1.0660   -1.4390 C.ar    1  UNL1        0.0400
     14  C11        2.0400   -1.0850   -1.1540 C.2     1  UNL1        0.2602
     15  O3         2.6220   -2.1640   -0.9400 O.2     1  UNL1       -0.2687
     16  N1         2.7600    0.1260   -1.1230 N.am    1  UNL1       -0.2301
     17  N2         4.1450    0.2010   -0.8580 N.am    1  UNL1       -0.2289
     18  C12        4.5800   -0.2500    0.4050 C.2     1  UNL1        0.2784
     19  O4         3.7330   -0.6930    1.2350 O.2     1  UNL1       -0.2670
     20  C13        5.9870   -0.2230    0.7960 C.ar    1  UNL1        0.1268
     21  C14        7.0010    0.2030   -0.0340 C.ar    1  UNL1       -0.0311
     22  C15        8.3250    0.2240    0.3730 C.ar    1  UNL1       -0.0582
     23  C16        8.6810   -0.1840    1.6340 C.ar    1  UNL1       -0.0436
     24  C17        7.6370   -0.6100    2.4570 C.ar    1  UNL1        0.0284
     25  N3         6.3600   -0.6220    2.0430 N.ar    1  UNL1       -0.2503
     26  C18       -0.2380   -0.0500   -1.0870 C.ar    1  UNL1       -0.0247
     27  C19       -4.2730   -0.2030    0.6940 C.3     1  UNL1       -0.0277
     28 H          -7.6399   -0.2088    0.4637 H       1  UNL1        0.0232
     29 H          -6.6223   -0.7005    1.7963 H       1  UNL1        0.0232
     30 H          -6.5160   -1.5315    0.2630 H       1  UNL1        0.0232
     31 H          -5.7735    0.5056   -0.7657 H       1  UNL1        0.0299
     32 H          -6.1837    1.6640    1.8709 H       1  UNL1        0.0268
     33 H          -6.2259    2.4245    0.3322 H       1  UNL1        0.0268
     34 H          -4.0781    2.3684    2.1426 H       1  UNL1        0.0284
     35 H          -4.0405    2.9844    0.5074 H       1  UNL1        0.0284
     36 H          -2.5250    0.8736    1.3767 H       1  UNL1        0.0540
     37 H          -3.1520   -1.1737   -2.2696 H       1  UNL1        0.0636
     38 H          -1.6938   -2.9846   -2.9116 H       1  UNL1        0.0618
     39 H           0.6336   -2.9313   -2.4053 H       1  UNL1        0.0625
     40 H           2.2719    0.9635   -1.2951 H       1  UNL1        0.1731
     41 H           4.7782    0.5523   -1.5250 H       1  UNL1        0.1732
     42 H           6.7667    0.5163   -0.9890 H       1  UNL1        0.0640
     43 H           9.0534    0.5509   -0.2809 H       1  UNL1        0.0619
     44 H           9.6619   -0.1763    1.9547 H       1  UNL1        0.0633
     45 H           7.8540   -0.9261    3.4151 H       1  UNL1        0.0830
     46 H           0.1461    0.7649   -0.5836 H       1  UNL1        0.0644
     47 H          -3.9390   -0.9286   -0.0179 H       1  UNL1        0.0286
     48 H          -4.3076   -0.7099    1.6357 H       1  UNL1        0.0286
@<TRIPOS>BOND
     1     1     2    1
     2     2     3    1
     3     2    27    1
     4     3     4    1
     5     4     5    1
     6     5     6    1
     7     5    27    1
     8     6     7    2
     9     6     8    2
    10     6     9    1
    11     9    10   ar
    12     9    26   ar
    13    10    11   ar
    14    11    12   ar
    15    12    13   ar
    16    13    14    1
    17    13    26   ar
    18    14    15    2
    19    14    16   am
    20    16    17    1
    21    17    18   am
    22    18    19    2
    23    18    20    1
    24    20    21   ar
    25    20    25   ar
    26    21    22   ar
    27    22    23   ar
    28    23    24   ar
    29    24    25   ar
    30     1    28    1
    31     1    29    1
    32     1    30    1
    33     2    31    1
    34     3    32    1
    35     3    33    1
    36     4    34    1
    37     4    35    1
    38     5    36    1
    39    10    37    1
    40    11    38    1
    41    12    39    1
    42    16    40    1
    43    17    41    1
    44    21    42    1
    45    22    43    1
    46    23    44    1
    47    24    45    1
    48    26    46    1
    49    27    47    1
    50    27    48    1
@<TRIPOS>MOLECULE
../data/bude_mols_rdkit_confs2/molecule_87.pdb
 48 50 0 0 0
SMALL
GASTEIGER

@<TRIPOS>ATOM
      1  C1        -6.5870   -0.1310    1.3560 C.3     1  UNL1       -0.0624
      2  C2        -5.6980    1.0880    1.2700 C.3     1  UNL1       -0.0421
      3  C3        -4.4120    0.9070    2.0600 C.3     1  UNL1       -0.0487
      4  C4        -3.2970    0.7390    1.0270 C.3     1  UNL1       -0.0301
      5  C5        -4.0560    0.2880   -0.1760 C.3     1  UNL1        0.0822
      6  S1        -3.1610    0.3660   -1.6840 S.O2    1  UNL1       -0.0002
      7  O1        -2.6190    1.7290   -1.9400 O.2     1  UNL1       -0.1691
      8  O2        -4.0460   -0.1090   -2.8040 O.2     1  UNL1       -0.1691
      9  C6        -1.8030   -0.7480   -1.5660 C.ar    1  UNL1        0.0892
     10  C7        -1.9420   -2.0620   -1.9690 C.ar    1  UNL1       -0.0368
     11  C8        -0.9120   -2.9750   -1.9030 C.ar    1  UNL1       -0.0592
     12  C9         0.3120   -2.5500   -1.4100 C.ar    1  UNL1       -0.0495
     13  C10        0.4800   -1.2460   -1.0010 C.ar    1  UNL1        0.0400
     14  C11        1.7760   -0.7860   -0.4860 C.2     1  UNL1        0.2602
     15  O3         1.8370    0.3470    0.1080 O.2     1  UNL1       -0.2687
     16  N1         2.9830   -1.5130   -0.6000 N.am    1  UNL1       -0.2301
     17  N2         4.2150   -1.0330   -0.0860 N.am    1  UNL1       -0.2289
     18  C12        4.7460    0.2140   -0.4950 C.2     1  UNL1        0.2784
     19  O4         4.0490    0.8510   -1.3390 O.2     1  UNL1       -0.2670
     20  C13        6.0090    0.7560    0.0040 C.ar    1  UNL1        0.1268
     21  C14        6.7620    0.0590    0.9170 C.ar    1  UNL1       -0.0311
     22  C15        7.9670    0.5650    1.4070 C.ar    1  UNL1       -0.0582
     23  C16        8.4010    1.7880    0.9600 C.ar    1  UNL1       -0.0436
     24  C17        7.6390    2.4780    0.0460 C.ar    1  UNL1        0.0284
     25  N3         6.4820    1.9480   -0.3980 N.ar    1  UNL1       -0.2503
     26  C18       -0.5830   -0.3670   -1.0860 C.ar    1  UNL1       -0.0247
     27  C19       -5.2440    1.2390   -0.1640 C.3     1  UNL1       -0.0277
     28 H          -6.9213   -0.2582    2.3645 H       1  UNL1        0.0232
     29 H          -6.0364   -0.9962    1.0509 H       1  UNL1        0.0232
     30 H          -7.4328   -0.0016    0.7135 H       1  UNL1        0.0232
     31 H          -6.2593    1.9186    1.6441 H       1  UNL1        0.0299
     32 H          -4.4770    0.0376    2.6804 H       1  UNL1        0.0268
     33 H          -4.2270    1.7436    2.7009 H       1  UNL1        0.0268
     34 H          -2.5866    0.0016    1.3378 H       1  UNL1        0.0284
     35 H          -2.7198    1.6255    0.8663 H       1  UNL1        0.0284
     36 H          -4.3102   -0.7503   -0.1279 H       1  UNL1        0.0540
     37 H          -2.8555   -2.3729   -2.3348 H       1  UNL1        0.0636
     38 H          -1.0483   -3.9500   -2.2126 H       1  UNL1        0.0618
     39 H           1.1002   -3.2134   -1.3493 H       1  UNL1        0.0625
     40 H           2.9680   -2.3865   -1.0538 H       1  UNL1        0.1731
     41 H           4.7103   -1.5776    0.5677 H       1  UNL1        0.1732
     42 H           6.4292   -0.8600    1.2483 H       1  UNL1        0.0640
     43 H           8.5216    0.0293    2.0929 H       1  UNL1        0.0619
     44 H           9.2886    2.1852    1.3056 H       1  UNL1        0.0633
     45 H           7.9523    3.3989   -0.2988 H       1  UNL1        0.0830
     46 H          -0.4504    0.6086   -0.7768 H       1  UNL1        0.0644
     47 H          -4.9485    2.2441   -0.3817 H       1  UNL1        0.0286
     48 H          -5.9950    1.0261   -0.8958 H       1  UNL1        0.0286
@<TRIPOS>BOND
     1     1     2    1
     2     2     3    1
     3     2    27    1
     4     3     4    1
     5     4     5    1
     6     5     6    1
     7     5    27    1
     8     6     7    2
     9     6     8    2
    10     6     9    1
    11     9    10   ar
    12     9    26   ar
    13    10    11   ar
    14    11    12   ar
    15    12    13   ar
    16    13    14    1
    17    13    26   ar
    18    14    15    2
    19    14    16   am
    20    16    17    1
    21    17    18   am
    22    18    19    2
    23    18    20    1
    24    20    21   ar
    25    20    25   ar
    26    21    22   ar
    27    22    23   ar
    28    23    24   ar
    29    24    25   ar
    30     1    28    1
    31     1    29    1
    32     1    30    1
    33     2    31    1
    34     3    32    1
    35     3    33    1
    36     4    34    1
    37     4    35    1
    38     5    36    1
    39    10    37    1
    40    11    38    1
    41    12    39    1
    42    16    40    1
    43    17    41    1
    44    21    42    1
    45    22    43    1
    46    23    44    1
    47    24    45    1
    48    26    46    1
    49    27    47    1
    50    27    48    1
@<TRIPOS>MOLECULE
../data/bude_mols_rdkit_confs2/molecule_87.pdb
 48 50 0 0 0
SMALL
GASTEIGER

@<TRIPOS>ATOM
      1  C1        -6.1930    2.5350    0.4620 C.3     1  UNL1       -0.0624
      2  C2        -6.2520    1.0440    0.7280 C.3     1  UNL1       -0.0421
      3  C3        -5.9840    0.3460   -0.6070 C.3     1  UNL1       -0.0487
      4  C4        -4.4940    0.5550   -0.7610 C.3     1  UNL1       -0.0301
      5  C5        -3.9460    0.4410    0.6200 C.3     1  UNL1        0.0822
      6  S1        -3.1910   -1.1610    0.8280 S.O2    1  UNL1       -0.0002
      7  O1        -4.1830   -2.2370    0.3960 O.2     1  UNL1       -0.1691
      8  O2        -2.8210   -1.4080    2.2500 O.2     1  UNL1       -0.1691
      9  C6        -1.7820   -1.2790   -0.2000 C.ar    1  UNL1        0.0892
     10  C7        -1.8620   -1.8060   -1.4820 C.ar    1  UNL1       -0.0368
     11  C8        -0.7610   -1.9230   -2.3060 C.ar    1  UNL1       -0.0592
     12  C9         0.4650   -1.5140   -1.8650 C.ar    1  UNL1       -0.0495
     13  C10        0.5640   -0.9830   -0.5800 C.ar    1  UNL1        0.0400
     14  C11        1.8920   -0.5880   -0.0880 C.2     1  UNL1        0.2602
     15  O3         2.0050    0.4590    0.5840 O.2     1  UNL1       -0.2687
     16  N1         3.0480   -1.3850   -0.3650 N.am    1  UNL1       -0.2301
     17  N2         4.3310   -1.0800    0.0700 N.am    1  UNL1       -0.2289
     18  C12        5.1000    0.0270   -0.3330 C.2     1  UNL1        0.2784
     19  O4         4.5860    0.8230   -1.1650 O.2     1  UNL1       -0.2670
     20  C13        6.4620    0.2620    0.1870 C.ar    1  UNL1        0.1268
     21  C14        7.2090    1.3130   -0.3060 C.ar    1  UNL1       -0.0311
     22  C15        8.4760    1.5040    0.2050 C.ar    1  UNL1       -0.0582
     23  C16        8.9680    0.6710    1.1700 C.ar    1  UNL1       -0.0436
     24  C17        8.2050   -0.3880    1.6610 C.ar    1  UNL1        0.0284
     25  N3         6.9590   -0.5380    1.1270 N.ar    1  UNL1       -0.2503
     26  C18       -0.5310   -0.8680    0.2310 C.ar    1  UNL1       -0.0247
     27  C19       -5.1050    0.5940    1.5980 C.3     1  UNL1       -0.0277
     28 H          -7.0186    2.8199   -0.1562 H       1  UNL1        0.0232
     29 H          -5.2761    2.7725   -0.0357 H       1  UNL1        0.0232
     30 H          -6.2427    3.0651    1.3901 H       1  UNL1        0.0232
     31 H          -7.1944    0.8224    1.1837 H       1  UNL1        0.0299
     32 H          -6.5281    0.8063   -1.4051 H       1  UNL1        0.0268
     33 H          -6.2860   -0.6802   -0.6318 H       1  UNL1        0.0268
     34 H          -4.2898    1.5231   -1.1683 H       1  UNL1        0.0284
     35 H          -4.0544   -0.1562   -1.4287 H       1  UNL1        0.0284
     36 H          -3.2086    1.1960    0.7963 H       1  UNL1        0.0540
     37 H          -2.7798   -2.1223   -1.8322 H       1  UNL1        0.0636
     38 H          -0.8640   -2.3188   -3.2535 H       1  UNL1        0.0618
     39 H           1.2981   -1.5961   -2.4685 H       1  UNL1        0.0625
     40 H           2.9256   -2.2030   -0.8989 H       1  UNL1        0.1731
     41 H           4.7403   -1.6953    0.7205 H       1  UNL1        0.1732
     42 H           6.8307    1.9374   -1.0354 H       1  UNL1        0.0640
     43 H           9.0569    2.2822   -0.1443 H       1  UNL1        0.0619
     44 H           9.9182    0.8279    1.5409 H       1  UNL1        0.0633
     45 H           8.5641   -1.0244    2.3897 H       1  UNL1        0.0830
     46 H          -0.4241   -0.4696    1.1770 H       1  UNL1        0.0644
     47 H          -5.3293   -0.3385    2.0724 H       1  UNL1        0.0286
     48 H          -4.8910    1.2816    2.3893 H       1  UNL1        0.0286
@<TRIPOS>BOND
     1     1     2    1
     2     2     3    1
     3     2    27    1
     4     3     4    1
     5     4     5    1
     6     5     6    1
     7     5    27    1
     8     6     7    2
     9     6     8    2
    10     6     9    1
    11     9    10   ar
    12     9    26   ar
    13    10    11   ar
    14    11    12   ar
    15    12    13   ar
    16    13    14    1
    17    13    26   ar
    18    14    15    2
    19    14    16   am
    20    16    17    1
    21    17    18   am
    22    18    19    2
    23    18    20    1
    24    20    21   ar
    25    20    25   ar
    26    21    22   ar
    27    22    23   ar
    28    23    24   ar
    29    24    25   ar
    30     1    28    1
    31     1    29    1
    32     1    30    1
    33     2    31    1
    34     3    32    1
    35     3    33    1
    36     4    34    1
    37     4    35    1
    38     5    36    1
    39    10    37    1
    40    11    38    1
    41    12    39    1
    42    16    40    1
    43    17    41    1
    44    21    42    1
    45    22    43    1
    46    23    44    1
    47    24    45    1
    48    26    46    1
    49    27    47    1
    50    27    48    1
@<TRIPOS>MOLECULE
../data/bude_mols_rdkit_confs2/molecule_87.pdb
 48 50 0 0 0
SMALL
GASTEIGER

@<TRIPOS>ATOM
      1  C1         6.2580   -0.1750   -2.7670 C.3     1  UNL1       -0.0624
      2  C2         6.2590   -0.6520   -1.3190 C.3     1  UNL1       -0.0421
      3  C3         6.1270    0.5580   -0.4390 C.3     1  UNL1       -0.0487
      4  C4         4.7820    0.4960    0.1970 C.3     1  UNL1       -0.0301
      5  C5         3.9970   -0.5290   -0.5470 C.3     1  UNL1        0.0822
      6  S1         2.8450   -1.3520    0.5360 S.O2    1  UNL1       -0.0002
      7  O1         2.2670   -2.5710   -0.1280 O.2     1  UNL1       -0.1691
      8  O2         3.6180   -1.8220    1.7440 O.2     1  UNL1       -0.1691
      9  C6         1.6110   -0.2100    1.0010 C.ar    1  UNL1        0.0892
     10  C7         1.8760    0.8220    1.8630 C.ar    1  UNL1       -0.0368
     11  C8         0.8870    1.7000    2.2690 C.ar    1  UNL1       -0.0592
     12  C9        -0.3940    1.5180    1.7860 C.ar    1  UNL1       -0.0495
     13  C10       -0.7170    0.5000    0.9200 C.ar    1  UNL1        0.0400
     14  C11       -2.0300    0.2350    0.4200 C.2     1  UNL1        0.2602
     15  O3        -2.6050   -0.8370    0.8440 O.2     1  UNL1       -0.2687
     16  N1        -2.7890    1.0010   -0.4880 N.am    1  UNL1       -0.2301
     17  N2        -4.0930    0.5480   -0.8520 N.am    1  UNL1       -0.2289
     18  C12       -5.1590    0.6450    0.1000 C.2     1  UNL1        0.2784
     19  O4        -4.8480    1.1510    1.2120 O.2     1  UNL1       -0.2670
     20  C13       -6.5190    0.2010   -0.1540 C.ar    1  UNL1        0.1268
     21  C14       -6.9020   -0.4030   -1.3330 C.ar    1  UNL1       -0.0311
     22  C15       -8.2350   -0.7890   -1.4440 C.ar    1  UNL1       -0.0582
     23  C16       -9.1680   -0.6030   -0.4560 C.ar    1  UNL1       -0.0436
     24  C17       -8.7240    0.0050    0.6990 C.ar    1  UNL1        0.0284
     25  N3        -7.4210    0.3910    0.8230 N.ar    1  UNL1       -0.2503
     26  C18        0.3030   -0.3570    0.5360 C.ar    1  UNL1       -0.0247
     27  C19        5.0560   -1.5260   -1.0250 C.3     1  UNL1       -0.0277
     28 H           7.1177    0.4378   -2.9413 H       1  UNL1        0.0232
     29 H           5.3710    0.3932   -2.9547 H       1  UNL1        0.0232
     30 H           6.2846   -1.0212   -3.4213 H       1  UNL1        0.0232
     31 H           7.1587   -1.2046   -1.1457 H       1  UNL1        0.0299
     32 H           6.2145    1.4488   -1.0252 H       1  UNL1        0.0268
     33 H           6.8975    0.5734    0.3033 H       1  UNL1        0.0268
     34 H           4.2994    1.4486    0.1303 H       1  UNL1        0.0284
     35 H           4.8602    0.2402    1.2330 H       1  UNL1        0.0284
     36 H           3.4234   -0.1030   -1.3435 H       1  UNL1        0.0540
     37 H           2.8369    0.9472    2.2179 H       1  UNL1        0.0636
     38 H           1.1015    2.4732    2.9179 H       1  UNL1        0.0618
     39 H          -1.1358    2.1698    2.0860 H       1  UNL1        0.0625
     40 H          -2.4257    1.8348   -0.8650 H       1  UNL1        0.1731
     41 H          -4.2578    0.1731   -1.7473 H       1  UNL1        0.1732
     42 H          -6.2298   -0.5620   -2.0997 H       1  UNL1        0.0640
     43 H          -8.5387   -1.2413   -2.3205 H       1  UNL1        0.0619
     44 H         -10.1491   -0.9019   -0.5709 H       1  UNL1        0.0633
     45 H          -9.3826    0.1696    1.4763 H       1  UNL1        0.0830
     46 H           0.0883   -1.1287   -0.1147 H       1  UNL1        0.0644
     47 H           5.2804   -2.2409   -0.2612 H       1  UNL1        0.0286
     48 H           4.7384   -2.0963   -1.8729 H       1  UNL1        0.0286
@<TRIPOS>BOND
     1     1     2    1
     2     2     3    1
     3     2    27    1
     4     3     4    1
     5     4     5    1
     6     5     6    1
     7     5    27    1
     8     6     7    2
     9     6     8    2
    10     6     9    1
    11     9    10   ar
    12     9    26   ar
    13    10    11   ar
    14    11    12   ar
    15    12    13   ar
    16    13    14    1
    17    13    26   ar
    18    14    15    2
    19    14    16   am
    20    16    17    1
    21    17    18   am
    22    18    19    2
    23    18    20    1
    24    20    21   ar
    25    20    25   ar
    26    21    22   ar
    27    22    23   ar
    28    23    24   ar
    29    24    25   ar
    30     1    28    1
    31     1    29    1
    32     1    30    1
    33     2    31    1
    34     3    32    1
    35     3    33    1
    36     4    34    1
    37     4    35    1
    38     5    36    1
    39    10    37    1
    40    11    38    1
    41    12    39    1
    42    16    40    1
    43    17    41    1
    44    21    42    1
    45    22    43    1
    46    23    44    1
    47    24    45    1
    48    26    46    1
    49    27    47    1
    50    27    48    1
@<TRIPOS>MOLECULE
../data/bude_mols_rdkit_confs2/molecule_87.pdb
 48 50 0 0 0
SMALL
GASTEIGER

@<TRIPOS>ATOM
      1  C1        -7.3330    0.7850    0.2390 C.3     1  UNL1       -0.0624
      2  C2        -6.2200   -0.0740    0.7800 C.3     1  UNL1       -0.0421
      3  C3        -6.2930   -1.4890    0.2520 C.3     1  UNL1       -0.0487
      4  C4        -4.8410   -1.9530    0.2730 C.3     1  UNL1       -0.0301
      5  C5        -4.0550   -0.6820   -0.1120 C.3     1  UNL1        0.0822
      6  S1        -2.5580   -0.6320    0.8470 S.O2    1  UNL1       -0.0002
      7  O1        -2.8520   -0.2750    2.2850 O.2     1  UNL1       -0.1691
      8  O2        -1.9290   -2.0040    0.8620 O.2     1  UNL1       -0.1691
      9  C6        -1.4580    0.4890    0.1040 C.ar    1  UNL1        0.0892
     10  C7        -1.8030    1.7490   -0.2870 C.ar    1  UNL1       -0.0368
     11  C8        -0.8550    2.6230   -0.8450 C.ar    1  UNL1       -0.0592
     12  C9         0.4640    2.1680   -0.9920 C.ar    1  UNL1       -0.0495
     13  C10        0.8280    0.9040   -0.6030 C.ar    1  UNL1        0.0400
     14  C11        2.2170    0.4890   -0.7540 C.2     1  UNL1        0.2602
     15  O3         3.0030    1.0900   -1.5220 O.2     1  UNL1       -0.2687
     16  N1         2.7340   -0.6400   -0.0140 N.am    1  UNL1       -0.2301
     17  N2         4.0700   -1.0660   -0.1190 N.am    1  UNL1       -0.2289
     18  C12        5.1610   -0.1740    0.0680 C.2     1  UNL1        0.2784
     19  O4         4.8720    1.0260    0.3350 O.2     1  UNL1       -0.2670
     20  C13        6.5400   -0.5590   -0.0290 C.ar    1  UNL1        0.1268
     21  C14        7.5460    0.3760    0.0960 C.ar    1  UNL1       -0.0311
     22  C15        8.8970    0.0420    0.0230 C.ar    1  UNL1       -0.0582
     23  C16        9.2310   -1.2830   -0.1840 C.ar    1  UNL1       -0.0436
     24  C17        8.2200   -2.2100   -0.3080 C.ar    1  UNL1        0.0284
     25  N3         6.9220   -1.8470   -0.2310 N.ar    1  UNL1       -0.2503
     26  C18       -0.1280    0.0920   -0.0680 C.ar    1  UNL1       -0.0247
     27  C19       -4.9030    0.4760    0.2250 C.3     1  UNL1       -0.0277
     28 H          -8.2714    0.4273    0.6084 H       1  UNL1        0.0232
     29 H          -7.3303    0.7407   -0.8301 H       1  UNL1        0.0232
     30 H          -7.1879    1.7971    0.5544 H       1  UNL1        0.0232
     31 H          -6.2927   -0.0676    1.8475 H       1  UNL1        0.0299
     32 H          -6.6854   -1.5059   -0.7433 H       1  UNL1        0.0268
     33 H          -6.9390   -2.1163    0.8300 H       1  UNL1        0.0268
     34 H          -4.6783   -2.7346   -0.4395 H       1  UNL1        0.0284
     35 H          -4.5449   -2.3575    1.2183 H       1  UNL1        0.0284
     36 H          -3.8066   -0.6717   -1.1527 H       1  UNL1        0.0540
     37 H          -2.7781    2.0663   -0.1709 H       1  UNL1        0.0636
     38 H          -1.1221    3.5754   -1.1393 H       1  UNL1        0.0618
     39 H           1.1737    2.7961   -1.4005 H       1  UNL1        0.0625
     40 H           2.1271   -1.1298    0.5869 H       1  UNL1        0.1731
     41 H           4.2553   -2.0100   -0.3282 H       1  UNL1        0.1732
     42 H           7.2878    1.3633    0.2499 H       1  UNL1        0.0640
     43 H           9.6278    0.7641    0.1208 H       1  UNL1        0.0619
     44 H          10.2197   -1.5725   -0.2445 H       1  UNL1        0.0633
     45 H           8.4594   -3.2018   -0.4629 H       1  UNL1        0.0830
     46 H           0.1426   -0.8602    0.2237 H       1  UNL1        0.0644
     47 H          -4.4194    1.0825    0.9620 H       1  UNL1        0.0286
     48 H          -5.0785    1.0827   -0.6388 H       1  UNL1        0.0286
@<TRIPOS>BOND
     1     1     2    1
     2     2     3    1
     3     2    27    1
     4     3     4    1
     5     4     5    1
     6     5     6    1
     7     5    27    1
     8     6     7    2
     9     6     8    2
    10     6     9    1
    11     9    10   ar
    12     9    26   ar
    13    10    11   ar
    14    11    12   ar
    15    12    13   ar
    16    13    14    1
    17    13    26   ar
    18    14    15    2
    19    14    16   am
    20    16    17    1
    21    17    18   am
    22    18    19    2
    23    18    20    1
    24    20    21   ar
    25    20    25   ar
    26    21    22   ar
    27    22    23   ar
    28    23    24   ar
    29    24    25   ar
    30     1    28    1
    31     1    29    1
    32     1    30    1
    33     2    31    1
    34     3    32    1
    35     3    33    1
    36     4    34    1
    37     4    35    1
    38     5    36    1
    39    10    37    1
    40    11    38    1
    41    12    39    1
    42    16    40    1
    43    17    41    1
    44    21    42    1
    45    22    43    1
    46    23    44    1
    47    24    45    1
    48    26    46    1
    49    27    47    1
    50    27    48    1
@<TRIPOS>MOLECULE
../data/bude_mols_rdkit_confs2/molecule_87.pdb
 48 50 0 0 0
SMALL
GASTEIGER

@<TRIPOS>ATOM
      1  C1        -7.1200    1.7270   -0.8880 C.3     1  UNL1       -0.0624
      2  C2        -5.9300    0.8870   -0.4660 C.3     1  UNL1       -0.0421
      3  C3        -5.5000   -0.0350   -1.5840 C.3     1  UNL1       -0.0487
      4  C4        -4.0850   -0.3820   -1.2190 C.3     1  UNL1       -0.0301
      5  C5        -3.5590    0.7780   -0.4200 C.3     1  UNL1        0.0822
      6  S1        -3.0530    0.1480    1.1750 S.O2    1  UNL1       -0.0002
      7  O1        -2.5260    1.2330    2.0620 O.2     1  UNL1       -0.1691
      8  O2        -4.1550   -0.6140    1.8280 O.2     1  UNL1       -0.1691
      9  C6        -1.7270   -0.9670    0.8650 C.ar    1  UNL1        0.0892
     10  C7        -1.9150   -2.3260    0.7700 C.ar    1  UNL1       -0.0368
     11  C8        -0.8310   -3.1350    0.5150 C.ar    1  UNL1       -0.0592
     12  C9         0.4200   -2.5520    0.3610 C.ar    1  UNL1       -0.0495
     13  C10        0.6070   -1.1970    0.4550 C.ar    1  UNL1        0.0400
     14  C11        1.9200   -0.5490    0.3160 C.2     1  UNL1        0.2602
     15  O3         2.1910    0.1200   -0.7120 O.2     1  UNL1       -0.2687
     16  N1         2.9200   -0.6430    1.3120 N.am    1  UNL1       -0.2301
     17  N2         4.1190    0.0120    1.1170 N.am    1  UNL1       -0.2289
     18  C12        5.1440   -0.2520    0.2210 C.2     1  UNL1        0.2784
     19  O4         4.9700   -1.2600   -0.5490 O.2     1  UNL1       -0.2670
     20  C13        6.3680    0.5050    0.0900 C.ar    1  UNL1        0.1268
     21  C14        7.3800    0.2940   -0.7960 C.ar    1  UNL1       -0.0311
     22  C15        8.5380    1.0850   -0.8690 C.ar    1  UNL1       -0.0582
     23  C16        8.6640    2.1480    0.0090 C.ar    1  UNL1       -0.0436
     24  C17        7.6230    2.3260    0.8850 C.ar    1  UNL1        0.0284
     25  N3         6.5330    1.5710    0.9470 N.ar    1  UNL1       -0.2503
     26  C18       -0.4900   -0.3950    0.7110 C.ar    1  UNL1       -0.0247
     27  C19       -4.7140    1.7220   -0.2080 C.3     1  UNL1       -0.0277
     28 H          -7.9625    1.0905   -1.0608 H       1  UNL1        0.0232
     29 H          -6.8822    2.2560   -1.7872 H       1  UNL1        0.0232
     30 H          -7.3548    2.4272   -0.1137 H       1  UNL1        0.0232
     31 H          -6.2535    0.3667    0.4112 H       1  UNL1        0.0299
     32 H          -5.5408    0.4639   -2.5297 H       1  UNL1        0.0268
     33 H          -6.1298   -0.8942   -1.6845 H       1  UNL1        0.0268
     34 H          -3.4976   -0.5200   -2.1026 H       1  UNL1        0.0284
     35 H          -4.0399   -1.2925   -0.6588 H       1  UNL1        0.0284
     36 H          -2.7426    1.2651   -0.9111 H       1  UNL1        0.0540
     37 H          -2.8557   -2.7336    0.8883 H       1  UNL1        0.0636
     38 H          -0.9460   -4.1578    0.4395 H       1  UNL1        0.0618
     39 H           1.2338   -3.1572    0.1700 H       1  UNL1        0.0625
     40 H           2.7633   -1.1669    2.1306 H       1  UNL1        0.1731
     41 H           4.2701    0.7869    1.7052 H       1  UNL1        0.1732
     42 H           7.2906   -0.4957   -1.4543 H       1  UNL1        0.0640
     43 H           9.2765    0.8791   -1.5598 H       1  UNL1        0.0619
     44 H           9.4892    2.7677    0.0049 H       1  UNL1        0.0633
     45 H           7.6933    3.1116    1.5505 H       1  UNL1        0.0830
     46 H          -0.3785    0.6282    0.7858 H       1  UNL1        0.0644
     47 H          -4.7177    2.0966    0.7943 H       1  UNL1        0.0286
     48 H          -4.6638    2.5779   -0.8481 H       1  UNL1        0.0286
@<TRIPOS>BOND
     1     1     2    1
     2     2     3    1
     3     2    27    1
     4     3     4    1
     5     4     5    1
     6     5     6    1
     7     5    27    1
     8     6     7    2
     9     6     8    2
    10     6     9    1
    11     9    10   ar
    12     9    26   ar
    13    10    11   ar
    14    11    12   ar
    15    12    13   ar
    16    13    14    1
    17    13    26   ar
    18    14    15    2
    19    14    16   am
    20    16    17    1
    21    17    18   am
    22    18    19    2
    23    18    20    1
    24    20    21   ar
    25    20    25   ar
    26    21    22   ar
    27    22    23   ar
    28    23    24   ar
    29    24    25   ar
    30     1    28    1
    31     1    29    1
    32     1    30    1
    33     2    31    1
    34     3    32    1
    35     3    33    1
    36     4    34    1
    37     4    35    1
    38     5    36    1
    39    10    37    1
    40    11    38    1
    41    12    39    1
    42    16    40    1
    43    17    41    1
    44    21    42    1
    45    22    43    1
    46    23    44    1
    47    24    45    1
    48    26    46    1
    49    27    47    1
    50    27    48    1
@<TRIPOS>MOLECULE
../data/bude_mols_rdkit_confs2/molecule_87.pdb
 48 50 0 0 0
SMALL
GASTEIGER

@<TRIPOS>ATOM
      1  C1        -7.1680   -0.9100   -0.0890 C.3     1  UNL1       -0.0624
      2  C2        -5.9060   -0.1060   -0.3350 C.3     1  UNL1       -0.0421
      3  C3        -6.1080    1.3230    0.1200 C.3     1  UNL1       -0.0487
      4  C4        -5.1850    1.5400    1.2780 C.3     1  UNL1       -0.0301
      5  C5        -4.0390    0.5710    1.0180 C.3     1  UNL1        0.0822
      6  S1        -2.9610    1.2850   -0.1740 S.O2    1  UNL1       -0.0002
      7  O1        -3.7010    1.5740   -1.4620 O.2     1  UNL1       -0.1691
      8  O2        -2.4510    2.6000    0.3560 O.2     1  UNL1       -0.1691
      9  C6        -1.6690    0.2020   -0.5300 C.ar    1  UNL1        0.0892
     10  C7        -1.8720   -0.7190   -1.5480 C.ar    1  UNL1       -0.0368
     11  C8        -0.8870   -1.6040   -1.9090 C.ar    1  UNL1       -0.0592
     12  C9         0.3160   -1.5690   -1.2440 C.ar    1  UNL1       -0.0495
     13  C10        0.5580   -0.6650   -0.2210 C.ar    1  UNL1        0.0400
     14  C11        1.8820   -0.6800    0.4320 C.2     1  UNL1        0.2602
     15  O3         2.0050   -1.0120    1.6450 O.2     1  UNL1       -0.2687
     16  N1         3.0740   -0.3230   -0.2590 N.am    1  UNL1       -0.2301
     17  N2         4.3490   -0.3250    0.3270 N.am    1  UNL1       -0.2289
     18  C12        5.4360    0.2010   -0.4160 C.2     1  UNL1        0.2784
     19  O4         5.2580    0.6710   -1.5670 O.2     1  UNL1       -0.2670
     20  C13        6.7780    0.2030    0.1320 C.ar    1  UNL1        0.1268
     21  C14        7.1640   -0.4250    1.3030 C.ar    1  UNL1       -0.0311
     22  C15        8.4640   -0.3600    1.7760 C.ar    1  UNL1       -0.0582
     23  C16        9.4400    0.3450    1.0800 C.ar    1  UNL1       -0.0436
     24  C17        9.0280    0.9640   -0.0890 C.ar    1  UNL1        0.0284
     25  N3         7.7620    0.8900   -0.5300 N.ar    1  UNL1       -0.2503
     26  C18       -0.4400    0.2070    0.1210 C.ar    1  UNL1       -0.0247
     27  C19       -4.7670   -0.6370    0.4980 C.3     1  UNL1       -0.0277
     28 H          -7.9631   -0.5181   -0.6883 H       1  UNL1        0.0232
     29 H          -7.4358   -0.8460    0.9450 H       1  UNL1        0.0232
     30 H          -6.9956   -1.9332   -0.3501 H       1  UNL1        0.0232
     31 H          -5.6894   -0.1698   -1.3809 H       1  UNL1        0.0299
     32 H          -7.1228    1.4733    0.4241 H       1  UNL1        0.0268
     33 H          -5.9007    2.0121   -0.6719 H       1  UNL1        0.0268
     34 H          -5.6737    1.3127    2.2024 H       1  UNL1        0.0284
     35 H          -4.8570    2.5552    1.3603 H       1  UNL1        0.0284
     36 H          -3.4230    0.3354    1.8605 H       1  UNL1        0.0540
     37 H          -2.7781   -0.7388   -2.0415 H       1  UNL1        0.0636
     38 H          -1.0468   -2.2851   -2.6677 H       1  UNL1        0.0618
     39 H           1.0584   -2.2332   -1.5135 H       1  UNL1        0.0625
     40 H           2.9995   -0.0589   -1.2045 H       1  UNL1        0.1731
     41 H           4.4857   -0.6836    1.2336 H       1  UNL1        0.1732
     42 H           6.4621   -0.9578    1.8400 H       1  UNL1        0.0640
     43 H           8.7114   -0.8404    2.6553 H       1  UNL1        0.0619
     44 H          10.4144    0.4037    1.4148 H       1  UNL1        0.0633
     45 H           9.7173    1.4999   -0.6392 H       1  UNL1        0.0830
     46 H          -0.2764    0.8854    0.8812 H       1  UNL1        0.0644
     47 H          -4.1140   -1.2352   -0.1025 H       1  UNL1        0.0286
     48 H          -5.1193   -1.2570    1.2957 H       1  UNL1        0.0286
@<TRIPOS>BOND
     1     1     2    1
     2     2     3    1
     3     2    27    1
     4     3     4    1
     5     4     5    1
     6     5     6    1
     7     5    27    1
     8     6     7    2
     9     6     8    2
    10     6     9    1
    11     9    10   ar
    12     9    26   ar
    13    10    11   ar
    14    11    12   ar
    15    12    13   ar
    16    13    14    1
    17    13    26   ar
    18    14    15    2
    19    14    16   am
    20    16    17    1
    21    17    18   am
    22    18    19    2
    23    18    20    1
    24    20    21   ar
    25    20    25   ar
    26    21    22   ar
    27    22    23   ar
    28    23    24   ar
    29    24    25   ar
    30     1    28    1
    31     1    29    1
    32     1    30    1
    33     2    31    1
    34     3    32    1
    35     3    33    1
    36     4    34    1
    37     4    35    1
    38     5    36    1
    39    10    37    1
    40    11    38    1
    41    12    39    1
    42    16    40    1
    43    17    41    1
    44    21    42    1
    45    22    43    1
    46    23    44    1
    47    24    45    1
    48    26    46    1
    49    27    47    1
    50    27    48    1
@<TRIPOS>MOLECULE
../data/bude_mols_rdkit_confs2/molecule_87.pdb
 48 50 0 0 0
SMALL
GASTEIGER

@<TRIPOS>ATOM
      1  C1        -5.3110   -1.7010    1.4130 C.3     1  UNL1       -0.0624
      2  C2        -4.2740   -2.1870    0.4220 C.3     1  UNL1       -0.0421
      3  C3        -4.8300   -2.2200   -0.9880 C.3     1  UNL1       -0.0487
      4  C4        -5.1180   -0.7600   -1.2390 C.3     1  UNL1       -0.0301
      5  C5        -4.1400   -0.0030   -0.3730 C.3     1  UNL1        0.0822
      6  S1        -3.1470    1.0280   -1.3860 S.O2    1  UNL1       -0.0002
      7  O1        -3.9980    2.0440   -2.1350 O.2     1  UNL1       -0.1691
      8  O2        -2.4530    0.1800   -2.4270 O.2     1  UNL1       -0.1691
      9  C6        -1.9000    1.8670   -0.4870 C.ar    1  UNL1        0.0892
     10  C7        -2.1380    3.1030    0.0990 C.ar    1  UNL1       -0.0368
     11  C8        -1.1300    3.7300    0.7890 C.ar    1  UNL1       -0.0592
     12  C9         0.1080    3.1380    0.9010 C.ar    1  UNL1       -0.0495
     13  C10        0.3690    1.9020    0.3230 C.ar    1  UNL1        0.0400
     14  C11        1.7070    1.3410    0.4770 C.2     1  UNL1        0.2602
     15  O3         1.8550    0.4400    1.3480 O.2     1  UNL1       -0.2687
     16  N1         2.7860    1.8120   -0.3370 N.am    1  UNL1       -0.2301
     17  N2         4.0350    1.2330   -0.1230 N.am    1  UNL1       -0.2289
     18  C12        4.3480   -0.1340   -0.2230 C.2     1  UNL1        0.2784
     19  O4         3.4010   -0.9010   -0.5400 O.2     1  UNL1       -0.2670
     20  C13        5.6750   -0.6760    0.0180 C.ar    1  UNL1        0.1268
     21  C14        5.8700   -2.0290   -0.0910 C.ar    1  UNL1       -0.0311
     22  C15        7.1220   -2.5390    0.1450 C.ar    1  UNL1       -0.0582
     23  C16        8.1360   -1.6680    0.4800 C.ar    1  UNL1       -0.0436
     24  C17        7.9050   -0.3310    0.5780 C.ar    1  UNL1        0.0284
     25  N3         6.6680    0.1640    0.3450 N.ar    1  UNL1       -0.2503
     26  C18       -0.6490    1.2870   -0.3650 C.ar    1  UNL1       -0.0247
     27  C19       -3.2540   -1.0470    0.2750 C.3     1  UNL1       -0.0277
     28 H          -6.0518   -2.4599    1.5551 H       1  UNL1        0.0232
     29 H          -5.7765   -0.8143    1.0361 H       1  UNL1        0.0232
     30 H          -4.8374   -1.4854    2.3479 H       1  UNL1        0.0232
     31 H          -3.9198   -3.1380    0.7613 H       1  UNL1        0.0299
     32 H          -5.7222   -2.8082   -1.0415 H       1  UNL1        0.0268
     33 H          -4.1693   -2.6613   -1.7047 H       1  UNL1        0.0268
     34 H          -6.1241   -0.5239   -0.9616 H       1  UNL1        0.0284
     35 H          -5.0128   -0.5060   -2.2731 H       1  UNL1        0.0284
     36 H          -4.6444    0.6009    0.3521 H       1  UNL1        0.0540
     37 H          -3.0658    3.5472    0.0166 H       1  UNL1        0.0636
     38 H          -1.3011    4.6493    1.2257 H       1  UNL1        0.0618
     39 H           0.8554    3.6211    1.4236 H       1  UNL1        0.0625
     40 H           2.6519    2.5121   -1.0161 H       1  UNL1        0.1731
     41 H           4.7701    1.8403    0.1221 H       1  UNL1        0.1732
     42 H           5.0886   -2.6530   -0.3461 H       1  UNL1        0.0640
     43 H           7.3003   -3.5529    0.0731 H       1  UNL1        0.0619
     44 H           9.0837   -2.0351    0.6590 H       1  UNL1        0.0633
     45 H           8.6756    0.3073    0.8308 H       1  UNL1        0.0830
     46 H          -0.4764    0.3683   -0.8024 H       1  UNL1        0.0644
     47 H          -2.4348   -1.3228   -0.3557 H       1  UNL1        0.0286
     48 H          -2.7780   -0.7411    1.1831 H       1  UNL1        0.0286
@<TRIPOS>BOND
     1     1     2    1
     2     2     3    1
     3     2    27    1
     4     3     4    1
     5     4     5    1
     6     5     6    1
     7     5    27    1
     8     6     7    2
     9     6     8    2
    10     6     9    1
    11     9    10   ar
    12     9    26   ar
    13    10    11   ar
    14    11    12   ar
    15    12    13   ar
    16    13    14    1
    17    13    26   ar
    18    14    15    2
    19    14    16   am
    20    16    17    1
    21    17    18   am
    22    18    19    2
    23    18    20    1
    24    20    21   ar
    25    20    25   ar
    26    21    22   ar
    27    22    23   ar
    28    23    24   ar
    29    24    25   ar
    30     1    28    1
    31     1    29    1
    32     1    30    1
    33     2    31    1
    34     3    32    1
    35     3    33    1
    36     4    34    1
    37     4    35    1
    38     5    36    1
    39    10    37    1
    40    11    38    1
    41    12    39    1
    42    16    40    1
    43    17    41    1
    44    21    42    1
    45    22    43    1
    46    23    44    1
    47    24    45    1
    48    26    46    1
    49    27    47    1
    50    27    48    1
@<TRIPOS>MOLECULE
../data/bude_mols_rdkit_confs2/molecule_87.pdb
 48 50 0 0 0
SMALL
GASTEIGER

@<TRIPOS>ATOM
      1  C1        -7.4400    0.7010   -0.2710 C.3     1  UNL1       -0.0624
      2  C2        -6.3390   -0.3160   -0.4040 C.3     1  UNL1       -0.0421
      3  C3        -5.8020   -0.4030   -1.8200 C.3     1  UNL1       -0.0487
      4  C4        -4.8290    0.7290   -1.8360 C.3     1  UNL1       -0.0301
      5  C5        -4.0680    0.5590   -0.5040 C.3     1  UNL1        0.0822
      6  S1        -2.7380   -0.6000   -0.7910 S.O2    1  UNL1       -0.0002
      7  O1        -3.2820   -2.0080   -0.8240 O.2     1  UNL1       -0.1691
      8  O2        -2.1190   -0.3490   -2.1640 O.2     1  UNL1       -0.1691
      9  C6        -1.5610   -0.4140    0.4750 C.ar    1  UNL1        0.0892
     10  C7        -1.8860   -0.3660    1.7760 C.ar    1  UNL1       -0.0368
     11  C8        -0.8790   -0.2380    2.7410 C.ar    1  UNL1       -0.0592
     12  C9         0.4280   -0.1660    2.3370 C.ar    1  UNL1       -0.0495
     13  C10        0.7920   -0.2150    1.0070 C.ar    1  UNL1        0.0400
     14  C11        2.1600   -0.1720    0.5750 C.2     1  UNL1        0.2602
     15  O3         2.6850   -1.2150    0.0470 O.2     1  UNL1       -0.2687
     16  N1         3.0110    0.9520    0.6820 N.am    1  UNL1       -0.2301
     17  N2         4.3550    0.8720    0.2250 N.am    1  UNL1       -0.2289
     18  C12        5.2930    0.0250    0.8810 C.2     1  UNL1        0.2784
     19  O4         4.8740   -0.6330    1.8640 O.2     1  UNL1       -0.2670
     20  C13        6.6860   -0.1200    0.4900 C.ar    1  UNL1        0.1268
     21  C14        7.2490    0.4970   -0.6040 C.ar    1  UNL1       -0.0311
     22  C15        8.5850    0.2960   -0.8670 C.ar    1  UNL1       -0.0582
     23  C16        9.3520   -0.5080   -0.0540 C.ar    1  UNL1       -0.0436
     24  C17        8.7720   -1.1290    1.0510 C.ar    1  UNL1        0.0284
     25  N3         7.4750   -0.8900    1.2460 N.ar    1  UNL1       -0.2503
     26  C18       -0.2250   -0.3380    0.0970 C.ar    1  UNL1       -0.0247
     27  C19       -5.1020    0.0630    0.4180 C.3     1  UNL1       -0.0277
     28 H          -8.2801    0.3962   -0.8595 H       1  UNL1        0.0232
     29 H          -7.0903    1.6522   -0.6143 H       1  UNL1        0.0232
     30 H          -7.7326    0.7778    0.7554 H       1  UNL1        0.0232
     31 H          -6.7918   -1.2291   -0.0783 H       1  UNL1        0.0299
     32 H          -6.5786   -0.2618   -2.5424 H       1  UNL1        0.0268
     33 H          -5.3736   -1.3516   -2.0679 H       1  UNL1        0.0268
     34 H          -5.3363    1.6705   -1.8706 H       1  UNL1        0.0284
     35 H          -4.1859    0.7174   -2.6911 H       1  UNL1        0.0284
     36 H          -3.6130    1.4410   -0.1040 H       1  UNL1        0.0540
     37 H          -2.8751   -0.4232    2.0647 H       1  UNL1        0.0636
     38 H          -1.1187   -0.1984    3.7440 H       1  UNL1        0.0618
     39 H           1.1660   -0.0718    3.0522 H       1  UNL1        0.0625
     40 H           2.6730    1.7900    1.0729 H       1  UNL1        0.1731
     41 H           4.6394    1.4066   -0.5513 H       1  UNL1        0.1732
     42 H           6.6788    1.1004   -1.2170 H       1  UNL1        0.0640
     43 H           9.0175    0.7540   -1.6844 H       1  UNL1        0.0619
     44 H          10.3528   -0.6504   -0.2620 H       1  UNL1        0.0633
     45 H           9.3154   -1.7387    1.6819 H       1  UNL1        0.0830
     46 H           0.0095   -0.3757   -0.9073 H       1  UNL1        0.0644
     47 H          -4.7380   -0.7966    0.9410 H       1  UNL1        0.0286
     48 H          -5.3520    0.8193    1.1324 H       1  UNL1        0.0286
@<TRIPOS>BOND
     1     1     2    1
     2     2     3    1
     3     2    27    1
     4     3     4    1
     5     4     5    1
     6     5     6    1
     7     5    27    1
     8     6     7    2
     9     6     8    2
    10     6     9    1
    11     9    10   ar
    12     9    26   ar
    13    10    11   ar
    14    11    12   ar
    15    12    13   ar
    16    13    14    1
    17    13    26   ar
    18    14    15    2
    19    14    16   am
    20    16    17    1
    21    17    18   am
    22    18    19    2
    23    18    20    1
    24    20    21   ar
    25    20    25   ar
    26    21    22   ar
    27    22    23   ar
    28    23    24   ar
    29    24    25   ar
    30     1    28    1
    31     1    29    1
    32     1    30    1
    33     2    31    1
    34     3    32    1
    35     3    33    1
    36     4    34    1
    37     4    35    1
    38     5    36    1
    39    10    37    1
    40    11    38    1
    41    12    39    1
    42    16    40    1
    43    17    41    1
    44    21    42    1
    45    22    43    1
    46    23    44    1
    47    24    45    1
    48    26    46    1
    49    27    47    1
    50    27    48    1
