@<TRIPOS>MOLECULE
../data/bude_mols_rdkit_confs2/molecule_45.pdb
 37 39 0 0 0
SMALL
GASTEIGER

@<TRIPOS>ATOM
      1  O1        -0.2750    0.7730   -1.8510 O.2     1  UNL1       -0.2684
      2  C1        -0.8560   -0.0500   -1.0590 C.2     1  UNL1        0.2647
      3  N1        -0.0350   -0.8870   -0.2990 N.am    1  UNL1       -0.3097
      4  C2         1.4170   -0.8540   -0.3410 C.3     1  UNL1        0.0159
      5  C3         1.9750    0.4890    0.0620 C.3     1  UNL1       -0.0120
      6  C4         3.4710    0.3590   -0.0330 C.ar    1  UNL1       -0.0432
      7  C5         4.1430    0.6520   -1.2010 C.ar    1  UNL1       -0.0584
      8  C6         5.5120    0.5400   -1.3090 C.ar    1  UNL1       -0.0588
      9  C7         6.2400    0.1200   -0.2090 C.ar    1  UNL1       -0.0264
     10  C8         5.5930   -0.1760    0.9580 C.ar    1  UNL1        0.1237
     11  F1         6.2720   -0.5910    2.0600 F       1  UNL1       -0.2055
     12  C9         4.2260   -0.0570    1.0430 C.ar    1  UNL1       -0.0232
     13  C10       -2.2970   -0.0050   -1.0670 C.ar    1  UNL1        0.1533
     14  N2        -2.9940    0.0960   -2.2400 N.ar    1  UNL1       -0.1656
     15  N3        -4.2850    0.1620   -2.3390 N.ar    1  UNL1       -0.2420
     16  C11       -5.0570    0.1340   -1.2640 C.ar    1  UNL1        0.2725
     17  O2        -6.3070    0.1930   -1.3200 O.2     1  UNL1       -0.2658
     18  C12       -4.4270    0.0340   -0.0280 C.ar    1  UNL1        0.0501
     19  C13       -5.2360    0.0350    1.0870 C.ar    1  UNL1       -0.0487
     20  C14       -4.7050   -0.0300    2.3710 C.ar    1  UNL1       -0.0610
     21  C15       -3.3340   -0.0940    2.4720 C.ar    1  UNL1       -0.0611
     22  C16       -2.4970   -0.0970    1.3490 C.ar    1  UNL1       -0.0516
     23  C17       -3.0400   -0.0350    0.0870 C.ar    1  UNL1        0.0195
     24 H          -0.4661   -1.5380    0.3007 H       1  UNL1        0.1491
     25 H           1.7368   -1.0735   -1.3382 H       1  UNL1        0.0465
     26 H           1.7796   -1.5800    0.3564 H       1  UNL1        0.0465
     27 H           1.6849    0.7271    1.0640 H       1  UNL1        0.0328
     28 H           1.6078    1.2721   -0.5679 H       1  UNL1        0.0328
     29 H           3.6022    0.9658   -2.0220 H       1  UNL1        0.0620
     30 H           5.9876    0.7658   -2.1966 H       1  UNL1        0.0619
     31 H           7.2663    0.0308   -0.2698 H       1  UNL1        0.0646
     32 H           3.7543   -0.2842    1.9323 H       1  UNL1        0.0649
     33 H          -4.6986    0.2342   -3.2295 H       1  UNL1        0.1921
     34 H          -6.2598    0.0851    0.9669 H       1  UNL1        0.0625
     35 H          -5.3097   -0.0302    3.2072 H       1  UNL1        0.0618
     36 H          -2.9067   -0.1416    3.4102 H       1  UNL1        0.0618
     37 H          -1.4731   -0.1457    1.4685 H       1  UNL1        0.0624
@<TRIPOS>BOND
     1     1     2    2
     2     2     3   am
     3     2    13    1
     4     3     4    1
     5     4     5    1
     6     5     6    1
     7     6     7   ar
     8     6    12   ar
     9     7     8   ar
    10     8     9   ar
    11     9    10   ar
    12    10    11    1
    13    10    12   ar
    14    13    14   ar
    15    13    23   ar
    16    14    15   ar
    17    15    16   ar
    18    16    17    2
    19    16    18   ar
    20    18    19   ar
    21    18    23   ar
    22    19    20   ar
    23    20    21   ar
    24    21    22   ar
    25    22    23   ar
    26     3    24    1
    27     4    25    1
    28     4    26    1
    29     5    27    1
    30     5    28    1
    31     7    29    1
    32     8    30    1
    33     9    31    1
    34    12    32    1
    35    15    33    1
    36    19    34    1
    37    20    35    1
    38    21    36    1
    39    22    37    1
@<TRIPOS>MOLECULE
../data/bude_mols_rdkit_confs2/molecule_45.pdb
 37 39 0 0 0
SMALL
GASTEIGER

@<TRIPOS>ATOM
      1  O1        -0.0650   -1.0000    1.3840 O.2     1  UNL1       -0.2684
      2  C1        -0.7620   -0.5750    0.3890 C.2     1  UNL1        0.2647
      3  N1        -0.0870    0.2660   -0.5180 N.am    1  UNL1       -0.3097
      4  C2         1.3180    0.6750   -0.3620 C.3     1  UNL1        0.0159
      5  C3         2.2000   -0.5480   -0.3790 C.3     1  UNL1       -0.0120
      6  C4         3.6440   -0.1540   -0.2280 C.ar    1  UNL1       -0.0432
      7  C5         4.4310    0.1210   -1.3120 C.ar    1  UNL1       -0.0584
      8  C6         5.7650    0.4840   -1.1410 C.ar    1  UNL1       -0.0588
      9  C7         6.3270    0.5750    0.1140 C.ar    1  UNL1       -0.0264
     10  C8         5.5360    0.2990    1.2070 C.ar    1  UNL1        0.1237
     11  F1         6.0540    0.3800    2.4410 F       1  UNL1       -0.2055
     12  C9         4.1970   -0.0650    1.0370 C.ar    1  UNL1       -0.0232
     13  C10       -2.1490   -0.9980    0.2840 C.ar    1  UNL1        0.1533
     14  N2        -2.4510   -2.3260    0.4550 N.ar    1  UNL1       -0.1656
     15  N3        -3.6940   -2.7470    0.3790 N.ar    1  UNL1       -0.2420
     16  C11       -4.7250   -1.9350    0.1360 C.ar    1  UNL1        0.2725
     17  O2        -5.8970   -2.3860    0.0710 O.2     1  UNL1       -0.2658
     18  C12       -4.5010   -0.5870   -0.0440 C.ar    1  UNL1        0.0501
     19  C13       -5.5200    0.2980   -0.2670 C.ar    1  UNL1       -0.0487
     20  C14       -5.2580    1.6370   -0.4100 C.ar    1  UNL1       -0.0610
     21  C15       -3.9790    2.1370   -0.3340 C.ar    1  UNL1       -0.0611
     22  C16       -2.9350    1.2320   -0.1070 C.ar    1  UNL1       -0.0516
     23  C17       -3.1800   -0.1230    0.0360 C.ar    1  UNL1        0.0195
     24 H          -0.5834    0.5988   -1.3003 H       1  UNL1        0.1491
     25 H           1.4389    1.1895    0.5683 H       1  UNL1        0.0465
     26 H           1.5926    1.3251   -1.1662 H       1  UNL1        0.0465
     27 H           2.0703   -1.0636   -1.3076 H       1  UNL1        0.0328
     28 H           1.9265   -1.1851    0.4360 H       1  UNL1        0.0328
     29 H           4.0342    0.0592   -2.2627 H       1  UNL1        0.0620
     30 H           6.3438    0.6888   -1.9705 H       1  UNL1        0.0619
     31 H           7.3165    0.8434    0.2319 H       1  UNL1        0.0646
     32 H           3.6147   -0.2695    1.8641 H       1  UNL1        0.0649
     33 H          -3.8729   -3.7066    0.5074 H       1  UNL1        0.1921
     34 H          -6.4919   -0.0437   -0.3280 H       1  UNL1        0.0625
     35 H          -6.0418    2.2867   -0.5792 H       1  UNL1        0.0618
     36 H          -3.7947    3.1468   -0.4409 H       1  UNL1        0.0618
     37 H          -1.9658    1.5812   -0.0452 H       1  UNL1        0.0624
@<TRIPOS>BOND
     1     1     2    2
     2     2     3   am
     3     2    13    1
     4     3     4    1
     5     4     5    1
     6     5     6    1
     7     6     7   ar
     8     6    12   ar
     9     7     8   ar
    10     8     9   ar
    11     9    10   ar
    12    10    11    1
    13    10    12   ar
    14    13    14   ar
    15    13    23   ar
    16    14    15   ar
    17    15    16   ar
    18    16    17    2
    19    16    18   ar
    20    18    19   ar
    21    18    23   ar
    22    19    20   ar
    23    20    21   ar
    24    21    22   ar
    25    22    23   ar
    26     3    24    1
    27     4    25    1
    28     4    26    1
    29     5    27    1
    30     5    28    1
    31     7    29    1
    32     8    30    1
    33     9    31    1
    34    12    32    1
    35    15    33    1
    36    19    34    1
    37    20    35    1
    38    21    36    1
    39    22    37    1
@<TRIPOS>MOLECULE
../data/bude_mols_rdkit_confs2/molecule_45.pdb
 37 39 0 0 0
SMALL
GASTEIGER

@<TRIPOS>ATOM
      1  O1        -0.3830   -0.2800    0.8920 O.2     1  UNL1       -0.2684
      2  C1        -0.7910   -0.3310   -0.2830 C.2     1  UNL1        0.2647
      3  N1         0.2990   -0.4190   -1.2440 N.am    1  UNL1       -0.3097
      4  C2         1.6710   -0.4430   -0.8730 C.3     1  UNL1        0.0159
      5  C3         2.1430    0.7720   -0.1160 C.3     1  UNL1       -0.0120
      6  C4         3.5780    0.5780    0.1840 C.ar    1  UNL1       -0.0432
      7  C5         4.5980    0.9850   -0.6470 C.ar    1  UNL1       -0.0584
      8  C6         5.9220    0.7950   -0.3490 C.ar    1  UNL1       -0.0588
      9  C7         6.2830    0.1660    0.8370 C.ar    1  UNL1       -0.0264
     10  C8         5.2840   -0.2470    1.6790 C.ar    1  UNL1        0.1237
     11  F1         5.6140   -0.8560    2.8310 F       1  UNL1       -0.2055
     12  C9         3.9610   -0.0440    1.3570 C.ar    1  UNL1       -0.0232
     13  C10       -2.1560   -0.3130   -0.7480 C.ar    1  UNL1        0.1533
     14  N2        -2.4380   -0.3770   -2.0800 N.ar    1  UNL1       -0.1656
     15  N3        -3.6280   -0.3670   -2.5950 N.ar    1  UNL1       -0.2420
     16  C11       -4.6860   -0.2880   -1.7840 C.ar    1  UNL1        0.2725
     17  O2        -5.8280   -0.2790   -2.3050 O.2     1  UNL1       -0.2658
     18  C12       -4.5260   -0.2170   -0.4110 C.ar    1  UNL1        0.0501
     19  C13       -5.6110   -0.1340    0.4340 C.ar    1  UNL1       -0.0487
     20  C14       -5.4660   -0.0630    1.8030 C.ar    1  UNL1       -0.0610
     21  C15       -4.1890   -0.0770    2.3040 C.ar    1  UNL1       -0.0611
     22  C16       -3.0880   -0.1600    1.4610 C.ar    1  UNL1       -0.0516
     23  C17       -3.2150   -0.2310    0.1010 C.ar    1  UNL1        0.0195
     24 H           0.0740   -0.4643   -2.2014 H       1  UNL1        0.1491
     25 H           2.2556   -0.5270   -1.7653 H       1  UNL1        0.0465
     26 H           1.7892   -1.2750   -0.2106 H       1  UNL1        0.0465
     27 H           1.5898    0.8732    0.7943 H       1  UNL1        0.0328
     28 H           1.9955    1.6588   -0.6963 H       1  UNL1        0.0328
     29 H           4.3544    1.4539   -1.5335 H       1  UNL1        0.0620
     30 H           6.6505    1.1186   -1.0045 H       1  UNL1        0.0619
     31 H           7.2753    0.0144    1.0765 H       1  UNL1        0.0646
     32 H           3.2321   -0.3666    2.0125 H       1  UNL1        0.0649
     33 H          -3.7499   -0.4170   -3.5707 H       1  UNL1        0.1921
     34 H          -6.5606   -0.1247    0.0300 H       1  UNL1        0.0625
     35 H          -6.2860   -0.0017    2.4266 H       1  UNL1        0.0618
     36 H          -4.0438   -0.0250    3.3244 H       1  UNL1        0.0618
     37 H          -2.1426   -0.1684    1.8747 H       1  UNL1        0.0624
@<TRIPOS>BOND
     1     1     2    2
     2     2     3   am
     3     2    13    1
     4     3     4    1
     5     4     5    1
     6     5     6    1
     7     6     7   ar
     8     6    12   ar
     9     7     8   ar
    10     8     9   ar
    11     9    10   ar
    12    10    11    1
    13    10    12   ar
    14    13    14   ar
    15    13    23   ar
    16    14    15   ar
    17    15    16   ar
    18    16    17    2
    19    16    18   ar
    20    18    19   ar
    21    18    23   ar
    22    19    20   ar
    23    20    21   ar
    24    21    22   ar
    25    22    23   ar
    26     3    24    1
    27     4    25    1
    28     4    26    1
    29     5    27    1
    30     5    28    1
    31     7    29    1
    32     8    30    1
    33     9    31    1
    34    12    32    1
    35    15    33    1
    36    19    34    1
    37    20    35    1
    38    21    36    1
    39    22    37    1
@<TRIPOS>MOLECULE
../data/bude_mols_rdkit_confs2/molecule_45.pdb
 37 39 0 0 0
SMALL
GASTEIGER

@<TRIPOS>ATOM
      1  O1         0.3560    0.9460   -0.1420 O.2     1  UNL1       -0.2684
      2  C1         0.7920   -0.1760   -0.3630 C.2     1  UNL1        0.2647
      3  N1        -0.2000   -1.1910   -0.6660 N.am    1  UNL1       -0.3097
      4  C2        -1.5910   -0.8720   -0.6950 C.3     1  UNL1        0.0159
      5  C3        -2.1390   -0.3460    0.6120 C.3     1  UNL1       -0.0120
      6  C4        -3.5880   -0.0740    0.3870 C.ar    1  UNL1       -0.0432
      7  C5        -3.9660    1.1690   -0.0560 C.ar    1  UNL1       -0.0584
      8  C6        -5.2880    1.4510   -0.2720 C.ar    1  UNL1       -0.0588
      9  C7        -6.2820    0.5270   -0.0620 C.ar    1  UNL1       -0.0264
     10  C8        -5.8750   -0.7260    0.3860 C.ar    1  UNL1        0.1237
     11  F1        -6.7670   -1.7190    0.6280 F       1  UNL1       -0.2055
     12  C9        -4.5460   -1.0230    0.6080 C.ar    1  UNL1       -0.0232
     13  C10        2.1670   -0.5780   -0.3530 C.ar    1  UNL1        0.1533
     14  N2         2.5020   -1.8760   -0.6230 N.ar    1  UNL1       -0.1656
     15  N3         3.7100   -2.3480   -0.6410 N.ar    1  UNL1       -0.2420
     16  C11        4.7480   -1.5400   -0.3820 C.ar    1  UNL1        0.2725
     17  O2         5.9250   -1.9460   -0.3870 O.2     1  UNL1       -0.2658
     18  C12        4.4960   -0.2170   -0.1010 C.ar    1  UNL1        0.0501
     19  C13        5.5240    0.6700    0.1760 C.ar    1  UNL1       -0.0487
     20  C14        5.3070    2.0020    0.4610 C.ar    1  UNL1       -0.0610
     21  C15        4.0160    2.4630    0.4710 C.ar    1  UNL1       -0.0611
     22  C16        2.9470    1.6080    0.1990 C.ar    1  UNL1       -0.0516
     23  C17        3.1930    0.2930   -0.0810 C.ar    1  UNL1        0.0195
     24 H           0.0905   -2.1126   -0.8542 H       1  UNL1        0.1491
     25 H          -2.1322   -1.7585   -0.9521 H       1  UNL1        0.0465
     26 H          -1.7093   -0.0877   -1.4132 H       1  UNL1        0.0465
     27 H          -1.6327    0.5551    0.8888 H       1  UNL1        0.0328
     28 H          -1.9970   -1.0528    1.4026 H       1  UNL1        0.0328
     29 H          -3.2511    1.8934   -0.2268 H       1  UNL1        0.0620
     30 H          -5.5473    2.3928   -0.6050 H       1  UNL1        0.0619
     31 H          -7.2760    0.7496   -0.2273 H       1  UNL1        0.0646
     32 H          -4.2755   -1.9617    0.9409 H       1  UNL1        0.0649
     33 H           3.8645   -3.2987   -0.8447 H       1  UNL1        0.1921
     34 H           6.4943    0.3186    0.1687 H       1  UNL1        0.0625
     35 H           6.0966    2.6355    0.6616 H       1  UNL1        0.0618
     36 H           3.8320    3.4562    0.6826 H       1  UNL1        0.0618
     37 H           1.9790    1.9656    0.2092 H       1  UNL1        0.0624
@<TRIPOS>BOND
     1     1     2    2
     2     2     3   am
     3     2    13    1
     4     3     4    1
     5     4     5    1
     6     5     6    1
     7     6     7   ar
     8     6    12   ar
     9     7     8   ar
    10     8     9   ar
    11     9    10   ar
    12    10    11    1
    13    10    12   ar
    14    13    14   ar
    15    13    23   ar
    16    14    15   ar
    17    15    16   ar
    18    16    17    2
    19    16    18   ar
    20    18    19   ar
    21    18    23   ar
    22    19    20   ar
    23    20    21   ar
    24    21    22   ar
    25    22    23   ar
    26     3    24    1
    27     4    25    1
    28     4    26    1
    29     5    27    1
    30     5    28    1
    31     7    29    1
    32     8    30    1
    33     9    31    1
    34    12    32    1
    35    15    33    1
    36    19    34    1
    37    20    35    1
    38    21    36    1
    39    22    37    1
@<TRIPOS>MOLECULE
../data/bude_mols_rdkit_confs2/molecule_45.pdb
 37 39 0 0 0
SMALL
GASTEIGER

@<TRIPOS>ATOM
      1  O1        -0.3270   -0.9410    0.3340 O.2     1  UNL1       -0.2684
      2  C1        -0.7820    0.1980    0.4660 C.2     1  UNL1        0.2647
      3  N1         0.2120    1.2110    0.7220 N.am    1  UNL1       -0.3097
      4  C2         1.5900    0.8290    0.7970 C.3     1  UNL1        0.0159
      5  C3         2.1610    0.2090   -0.4290 C.3     1  UNL1       -0.0120
      6  C4         3.5990   -0.1060   -0.1320 C.ar    1  UNL1       -0.0432
      7  C5         3.9360   -1.3260    0.4000 C.ar    1  UNL1       -0.0584
      8  C6         5.2720   -1.6290    0.6800 C.ar    1  UNL1       -0.0588
      9  C7         6.2510   -0.7180    0.4290 C.ar    1  UNL1       -0.0264
     10  C8         5.9240    0.5030   -0.1020 C.ar    1  UNL1        0.1237
     11  F1         6.8870    1.4450   -0.3670 F       1  UNL1       -0.2055
     12  C9         4.6020    0.8060   -0.3810 C.ar    1  UNL1       -0.0232
     13  C10       -2.1630    0.6500    0.4000 C.ar    1  UNL1        0.1533
     14  N2        -2.4520    1.9730    0.5770 N.ar    1  UNL1       -0.1656
     15  N3        -3.6410    2.4830    0.5390 N.ar    1  UNL1       -0.2420
     16  C11       -4.7300    1.7430    0.3160 C.ar    1  UNL1        0.2725
     17  O2        -5.8860    2.2220    0.2770 O.2     1  UNL1       -0.2658
     18  C12       -4.5010    0.3770    0.1270 C.ar    1  UNL1        0.0501
     19  C13       -5.6150   -0.4040   -0.1050 C.ar    1  UNL1       -0.0487
     20  C14       -5.4030   -1.7580   -0.2940 C.ar    1  UNL1       -0.0610
     21  C15       -4.1520   -2.3090   -0.2560 C.ar    1  UNL1       -0.0611
     22  C16       -3.0560   -1.5070   -0.0230 C.ar    1  UNL1       -0.0516
     23  C17       -3.2320   -0.1640    0.1680 C.ar    1  UNL1        0.0195
     24 H          -0.0530    2.1514    0.8434 H       1  UNL1        0.1491
     25 H           1.6922    0.1264    1.5975 H       1  UNL1        0.0465
     26 H           2.1347    1.7385    0.9416 H       1  UNL1        0.0465
     27 H           2.0963    0.8916   -1.2504 H       1  UNL1        0.0328
     28 H           1.6230   -0.6767   -0.6954 H       1  UNL1        0.0328
     29 H           3.1998   -2.0227    0.5941 H       1  UNL1        0.0620
     30 H           5.5169   -2.5486    1.0792 H       1  UNL1        0.0619
     31 H           7.2358   -0.9452    0.6375 H       1  UNL1        0.0646
     32 H           4.3645    1.7273   -0.7808 H       1  UNL1        0.0649
     33 H          -3.7464    3.4517    0.6796 H       1  UNL1        0.1921
     34 H          -6.5627    0.0034   -0.1361 H       1  UNL1        0.0625
     35 H          -6.2143   -2.3713   -0.4691 H       1  UNL1        0.0618
     36 H          -4.0290   -3.3233   -0.4015 H       1  UNL1        0.0618
     37 H          -2.1092   -1.9166    0.0072 H       1  UNL1        0.0624
@<TRIPOS>BOND
     1     1     2    2
     2     2     3   am
     3     2    13    1
     4     3     4    1
     5     4     5    1
     6     5     6    1
     7     6     7   ar
     8     6    12   ar
     9     7     8   ar
    10     8     9   ar
    11     9    10   ar
    12    10    11    1
    13    10    12   ar
    14    13    14   ar
    15    13    23   ar
    16    14    15   ar
    17    15    16   ar
    18    16    17    2
    19    16    18   ar
    20    18    19   ar
    21    18    23   ar
    22    19    20   ar
    23    20    21   ar
    24    21    22   ar
    25    22    23   ar
    26     3    24    1
    27     4    25    1
    28     4    26    1
    29     5    27    1
    30     5    28    1
    31     7    29    1
    32     8    30    1
    33     9    31    1
    34    12    32    1
    35    15    33    1
    36    19    34    1
    37    20    35    1
    38    21    36    1
    39    22    37    1
@<TRIPOS>MOLECULE
../data/bude_mols_rdkit_confs2/molecule_45.pdb
 37 39 0 0 0
SMALL
GASTEIGER

@<TRIPOS>ATOM
      1  O1        -0.1100   -0.0660    1.9040 O.2     1  UNL1       -0.2684
      2  C1        -0.7790    0.1950    0.8550 C.2     1  UNL1        0.2647
      3  N1        -0.1320    0.1950   -0.3930 N.am    1  UNL1       -0.3097
      4  C2         1.2710   -0.1120   -0.5060 C.3     1  UNL1        0.0159
      5  C3         2.1760    0.8350    0.2410 C.3     1  UNL1       -0.0120
      6  C4         3.5970    0.4020    0.0300 C.ar    1  UNL1       -0.0432
      7  C5         4.3460    0.8810   -1.0230 C.ar    1  UNL1       -0.0584
      8  C6         5.6510    0.4980   -1.2370 C.ar    1  UNL1       -0.0588
      9  C7         6.2740   -0.3950   -0.3930 C.ar    1  UNL1       -0.0264
     10  C8         5.5380   -0.8840    0.6670 C.ar    1  UNL1        0.1237
     11  F1         6.1420   -1.7720    1.5160 F       1  UNL1       -0.2055
     12  C9         4.2280   -0.4930    0.8730 C.ar    1  UNL1       -0.0232
     13  C10       -2.1960    0.5000    0.9600 C.ar    1  UNL1        0.1533
     14  N2        -2.6030    1.4200    1.9000 N.ar    1  UNL1       -0.1656
     15  N3        -3.8780    1.6900    2.0060 N.ar    1  UNL1       -0.2420
     16  C11       -4.8010    1.1070    1.2370 C.ar    1  UNL1        0.2725
     17  O2        -6.0060    1.3940    1.3690 O.2     1  UNL1       -0.2658
     18  C12       -4.4480    0.1770    0.2810 C.ar    1  UNL1        0.0501
     19  C13       -5.4010   -0.4490   -0.4970 C.ar    1  UNL1       -0.0487
     20  C14       -5.0750   -1.4020   -1.4360 C.ar    1  UNL1       -0.0610
     21  C15       -3.7440   -1.7260   -1.5830 C.ar    1  UNL1       -0.0611
     22  C16       -2.7800   -1.0890   -0.7920 C.ar    1  UNL1       -0.0516
     23  C17       -3.0960   -0.1370    0.1410 C.ar    1  UNL1        0.0195
     24 H          -0.6469    0.4086   -1.2044 H       1  UNL1        0.1491
     25 H           1.5378   -0.0834   -1.5418 H       1  UNL1        0.0465
     26 H           1.4094   -1.0780   -0.0672 H       1  UNL1        0.0465
     27 H           1.9422    0.8097    1.2848 H       1  UNL1        0.0328
     28 H           2.0397    1.8332   -0.1195 H       1  UNL1        0.0328
     29 H           3.9122    1.5523   -1.6759 H       1  UNL1        0.0620
     30 H           6.1697    0.8852   -2.0408 H       1  UNL1        0.0619
     31 H           7.2519   -0.6866   -0.5473 H       1  UNL1        0.0646
     32 H           3.7082   -0.8792    1.6766 H       1  UNL1        0.0649
     33 H          -4.1685    2.3480    2.6782 H       1  UNL1        0.1921
     34 H          -6.3929   -0.1938   -0.3705 H       1  UNL1        0.0625
     35 H          -5.8021   -1.8575   -2.0095 H       1  UNL1        0.0618
     36 H          -3.4581   -2.4366   -2.2746 H       1  UNL1        0.0618
     37 H          -1.7889   -1.3478   -0.9173 H       1  UNL1        0.0624
@<TRIPOS>BOND
     1     1     2    2
     2     2     3   am
     3     2    13    1
     4     3     4    1
     5     4     5    1
     6     5     6    1
     7     6     7   ar
     8     6    12   ar
     9     7     8   ar
    10     8     9   ar
    11     9    10   ar
    12    10    11    1
    13    10    12   ar
    14    13    14   ar
    15    13    23   ar
    16    14    15   ar
    17    15    16   ar
    18    16    17    2
    19    16    18   ar
    20    18    19   ar
    21    18    23   ar
    22    19    20   ar
    23    20    21   ar
    24    21    22   ar
    25    22    23   ar
    26     3    24    1
    27     4    25    1
    28     4    26    1
    29     5    27    1
    30     5    28    1
    31     7    29    1
    32     8    30    1
    33     9    31    1
    34    12    32    1
    35    15    33    1
    36    19    34    1
    37    20    35    1
    38    21    36    1
    39    22    37    1
@<TRIPOS>MOLECULE
../data/bude_mols_rdkit_confs2/molecule_45.pdb
 37 39 0 0 0
SMALL
GASTEIGER

@<TRIPOS>ATOM
      1  O1         0.1890   -1.8360    0.2100 O.2     1  UNL1       -0.2684
      2  C1         0.8050   -0.9060   -0.4180 C.2     1  UNL1        0.2647
      3  N1        -0.0140    0.0410   -1.0680 N.am    1  UNL1       -0.3097
      4  C2        -1.4630   -0.0020   -1.0190 C.3     1  UNL1        0.0159
      5  C3        -1.9960    0.1000    0.3910 C.3     1  UNL1       -0.0120
      6  C4        -3.4800    0.0440    0.2980 C.ar    1  UNL1       -0.0432
      7  C5        -4.2490    1.1780    0.1530 C.ar    1  UNL1       -0.0584
      8  C6        -5.6170    1.0260    0.0760 C.ar    1  UNL1       -0.0588
      9  C7        -6.2310   -0.2260    0.1390 C.ar    1  UNL1       -0.0264
     10  C8        -5.4590   -1.3540    0.2840 C.ar    1  UNL1        0.1237
     11  F1        -6.0100   -2.5890    0.3510 F       1  UNL1       -0.2055
     12  C9        -4.0920   -1.1970    0.3610 C.ar    1  UNL1       -0.0232
     13  C10        2.2510   -0.9570   -0.3830 C.ar    1  UNL1        0.1533
     14  N2         2.7700   -2.2210   -0.5410 N.ar    1  UNL1       -0.1656
     15  N3         4.0470   -2.4630   -0.5310 N.ar    1  UNL1       -0.2420
     16  C11        4.8940   -1.4390   -0.3590 C.ar    1  UNL1        0.2725
     17  O2         6.1300   -1.6700   -0.3510 O.2     1  UNL1       -0.2658
     18  C12        4.4630   -0.1350   -0.1900 C.ar    1  UNL1        0.0501
     19  C13        5.3660    0.9000    0.0120 C.ar    1  UNL1       -0.0487
     20  C14        4.8900    2.1770    0.2050 C.ar    1  UNL1       -0.0610
     21  C15        3.5300    2.3900    0.1930 C.ar    1  UNL1       -0.0611
     22  C16        2.6190    1.3490   -0.0110 C.ar    1  UNL1       -0.0516
     23  C17        3.0980    0.0930   -0.2040 C.ar    1  UNL1        0.0195
     24 H           0.4176    0.7640   -1.5781 H       1  UNL1        0.1491
     25 H          -1.7937   -0.9261   -1.4452 H       1  UNL1        0.0465
     26 H          -1.8326    0.8384   -1.5686 H       1  UNL1        0.0465
     27 H          -1.6898    1.0246    0.8340 H       1  UNL1        0.0328
     28 H          -1.6205   -0.6952    1.0005 H       1  UNL1        0.0328
     29 H          -3.8142    2.1126    0.1035 H       1  UNL1        0.0620
     30 H          -6.2069    1.8659   -0.0318 H       1  UNL1        0.0619
     31 H          -7.2582   -0.3043    0.0771 H       1  UNL1        0.0646
     32 H          -3.5016   -2.0364    0.4698 H       1  UNL1        0.0649
     33 H           4.3852   -3.3802   -0.6475 H       1  UNL1        0.1921
     34 H           6.3811    0.7143    0.0174 H       1  UNL1        0.0625
     35 H           5.5423    2.9623    0.3563 H       1  UNL1        0.0618
     36 H           3.1720    3.3469    0.3390 H       1  UNL1        0.0618
     37 H           1.6033    1.5315   -0.0148 H       1  UNL1        0.0624
@<TRIPOS>BOND
     1     1     2    2
     2     2     3   am
     3     2    13    1
     4     3     4    1
     5     4     5    1
     6     5     6    1
     7     6     7   ar
     8     6    12   ar
     9     7     8   ar
    10     8     9   ar
    11     9    10   ar
    12    10    11    1
    13    10    12   ar
    14    13    14   ar
    15    13    23   ar
    16    14    15   ar
    17    15    16   ar
    18    16    17    2
    19    16    18   ar
    20    18    19   ar
    21    18    23   ar
    22    19    20   ar
    23    20    21   ar
    24    21    22   ar
    25    22    23   ar
    26     3    24    1
    27     4    25    1
    28     4    26    1
    29     5    27    1
    30     5    28    1
    31     7    29    1
    32     8    30    1
    33     9    31    1
    34    12    32    1
    35    15    33    1
    36    19    34    1
    37    20    35    1
    38    21    36    1
    39    22    37    1
@<TRIPOS>MOLECULE
../data/bude_mols_rdkit_confs2/molecule_45.pdb
 37 39 0 0 0
SMALL
GASTEIGER

@<TRIPOS>ATOM
      1  O1        -0.0990   -2.0540    0.2070 O.2     1  UNL1       -0.2684
      2  C1         0.7200   -1.1270    0.5150 C.2     1  UNL1        0.2647
      3  N1         0.1430    0.0680    0.9460 N.am    1  UNL1       -0.3097
      4  C2        -1.2860    0.2970    1.0290 C.3     1  UNL1        0.0159
      5  C3        -1.9870    0.1620   -0.2890 C.3     1  UNL1       -0.0120
      6  C4        -3.4410    0.4140   -0.1120 C.ar    1  UNL1       -0.0432
      7  C5        -3.9780    1.6830   -0.2350 C.ar    1  UNL1       -0.0584
      8  C6        -5.3310    1.9080   -0.0690 C.ar    1  UNL1       -0.0588
      9  C7        -6.2160    0.8940    0.2260 C.ar    1  UNL1       -0.0264
     10  C8        -5.6820   -0.3710    0.3480 C.ar    1  UNL1        0.1237
     11  F1        -6.5360   -1.3820    0.6380 F       1  UNL1       -0.2055
     12  C9        -4.3310   -0.6010    0.1830 C.ar    1  UNL1       -0.0232
     13  C10        2.1480   -1.3580    0.4140 C.ar    1  UNL1        0.1533
     14  N2         2.6940   -2.5160    0.8820 N.ar    1  UNL1       -0.1656
     15  N3         3.9770   -2.7870    0.8010 N.ar    1  UNL1       -0.2420
     16  C11        4.8680   -1.9490    0.2520 C.ar    1  UNL1        0.2725
     17  O2         6.0890   -2.1870    0.1680 O.2     1  UNL1       -0.2658
     18  C12        4.3810   -0.7520   -0.2470 C.ar    1  UNL1        0.0501
     19  C13        5.2640    0.1080   -0.8390 C.ar    1  UNL1       -0.0487
     20  C14        4.8390    1.2930   -1.3780 C.ar    1  UNL1       -0.0610
     21  C15        3.5110    1.5770   -1.3030 C.ar    1  UNL1       -0.0611
     22  C16        2.6020    0.7180   -0.7060 C.ar    1  UNL1       -0.0516
     23  C17        3.0130   -0.4580   -0.1650 C.ar    1  UNL1        0.0195
     24 H           0.7440    0.8016    1.2103 H       1  UNL1        0.1491
     25 H          -1.4500    1.2868    1.4008 H       1  UNL1        0.0465
     26 H          -1.6889   -0.4508    1.6796 H       1  UNL1        0.0465
     27 H          -1.8414   -0.8274   -0.6695 H       1  UNL1        0.0328
     28 H          -1.5854    0.8751   -0.9783 H       1  UNL1        0.0328
     29 H          -3.3561    2.4767   -0.4549 H       1  UNL1        0.0620
     30 H          -5.6916    2.8697   -0.1695 H       1  UNL1        0.0619
     31 H          -7.2250    1.0721    0.3491 H       1  UNL1        0.0646
     32 H          -3.9734   -1.5639    0.2834 H       1  UNL1        0.0649
     33 H           4.2991   -3.6452    1.1601 H       1  UNL1        0.1921
     34 H           6.2650   -0.1395   -0.8802 H       1  UNL1        0.0625
     35 H           5.5017    1.9462   -1.8244 H       1  UNL1        0.0618
     36 H           3.1681    2.4635   -1.7049 H       1  UNL1        0.0618
     37 H           1.6029    0.9744   -0.6722 H       1  UNL1        0.0624
@<TRIPOS>BOND
     1     1     2    2
     2     2     3   am
     3     2    13    1
     4     3     4    1
     5     4     5    1
     6     5     6    1
     7     6     7   ar
     8     6    12   ar
     9     7     8   ar
    10     8     9   ar
    11     9    10   ar
    12    10    11    1
    13    10    12   ar
    14    13    14   ar
    15    13    23   ar
    16    14    15   ar
    17    15    16   ar
    18    16    17    2
    19    16    18   ar
    20    18    19   ar
    21    18    23   ar
    22    19    20   ar
    23    20    21   ar
    24    21    22   ar
    25    22    23   ar
    26     3    24    1
    27     4    25    1
    28     4    26    1
    29     5    27    1
    30     5    28    1
    31     7    29    1
    32     8    30    1
    33     9    31    1
    34    12    32    1
    35    15    33    1
    36    19    34    1
    37    20    35    1
    38    21    36    1
    39    22    37    1
@<TRIPOS>MOLECULE
../data/bude_mols_rdkit_confs2/molecule_45.pdb
 37 39 0 0 0
SMALL
GASTEIGER

@<TRIPOS>ATOM
      1  O1         0.7410    1.5340    0.3670 O.2     1  UNL1       -0.2684
      2  C1         0.9740    0.3270    0.2110 C.2     1  UNL1        0.2647
      3  N1        -0.2140   -0.4880    0.0530 N.am    1  UNL1       -0.3097
      4  C2        -1.5290    0.1050    0.0830 C.3     1  UNL1        0.0159
      5  C3        -2.5440   -0.9770   -0.1050 C.3     1  UNL1       -0.0120
      6  C4        -3.9390   -0.4520   -0.0870 C.ar    1  UNL1       -0.0432
      7  C5        -4.6530   -0.3630    1.1080 C.ar    1  UNL1       -0.0584
      8  C6        -5.9450    0.1190    1.1510 C.ar    1  UNL1       -0.0588
      9  C7        -6.5750    0.5330   -0.0050 C.ar    1  UNL1       -0.0264
     10  C8        -5.8840    0.4540   -1.2050 C.ar    1  UNL1        0.1237
     11  F1        -6.4860    0.8550   -2.3500 F       1  UNL1       -0.2055
     12  C9        -4.5960   -0.0310   -1.2260 C.ar    1  UNL1       -0.0232
     13  C10        2.2730   -0.3290    0.1720 C.ar    1  UNL1        0.1533
     14  N2         2.3470   -1.6790   -0.0100 N.ar    1  UNL1       -0.1656
     15  N3         3.4470   -2.3660   -0.0610 N.ar    1  UNL1       -0.2420
     16  C11        4.6320   -1.7440    0.0700 C.ar    1  UNL1        0.2725
     17  O2         5.7290   -2.3820    0.0260 O.2     1  UNL1       -0.2658
     18  C12        4.6630   -0.3780    0.2580 C.ar    1  UNL1        0.0501
     19  C13        5.8630    0.2570    0.3920 C.ar    1  UNL1       -0.0487
     20  C14        5.9240    1.6390    0.5830 C.ar    1  UNL1       -0.0610
     21  C15        4.7490    2.3210    0.6300 C.ar    1  UNL1       -0.0611
     22  C16        3.5300    1.6780    0.4950 C.ar    1  UNL1       -0.0516
     23  C17        3.4670    0.3260    0.3080 C.ar    1  UNL1        0.0195
     24 H          -0.1225   -1.4596   -0.0766 H       1  UNL1        0.1491
     25 H          -1.6184    0.8240   -0.7044 H       1  UNL1        0.0465
     26 H          -1.6874    0.5963    1.0202 H       1  UNL1        0.0465
     27 H          -2.4350   -1.6920    0.6835 H       1  UNL1        0.0328
     28 H          -2.3740   -1.4231   -1.0626 H       1  UNL1        0.0328
     29 H          -4.2018   -0.6664    1.9852 H       1  UNL1        0.0620
     30 H          -6.4434    0.1703    2.0532 H       1  UNL1        0.0619
     31 H          -7.5413    0.8943    0.0229 H       1  UNL1        0.0646
     32 H          -4.1011   -0.0820   -2.1302 H       1  UNL1        0.0649
     33 H           3.4139   -3.3407   -0.1954 H       1  UNL1        0.1921
     34 H           6.7367   -0.2908    0.3517 H       1  UNL1        0.0625
     35 H           6.8286    2.1251    0.6848 H       1  UNL1        0.0618
     36 H           4.7659    3.3434    0.7698 H       1  UNL1        0.0618
     37 H           2.6574    2.2274    0.5362 H       1  UNL1        0.0624
@<TRIPOS>BOND
     1     1     2    2
     2     2     3   am
     3     2    13    1
     4     3     4    1
     5     4     5    1
     6     5     6    1
     7     6     7   ar
     8     6    12   ar
     9     7     8   ar
    10     8     9   ar
    11     9    10   ar
    12    10    11    1
    13    10    12   ar
    14    13    14   ar
    15    13    23   ar
    16    14    15   ar
    17    15    16   ar
    18    16    17    2
    19    16    18   ar
    20    18    19   ar
    21    18    23   ar
    22    19    20   ar
    23    20    21   ar
    24    21    22   ar
    25    22    23   ar
    26     3    24    1
    27     4    25    1
    28     4    26    1
    29     5    27    1
    30     5    28    1
    31     7    29    1
    32     8    30    1
    33     9    31    1
    34    12    32    1
    35    15    33    1
    36    19    34    1
    37    20    35    1
    38    21    36    1
    39    22    37    1
@<TRIPOS>MOLECULE
../data/bude_mols_rdkit_confs2/molecule_45.pdb
 37 39 0 0 0
SMALL
GASTEIGER

@<TRIPOS>ATOM
      1  O1         0.7250    1.4380    0.5220 O.2     1  UNL1       -0.2684
      2  C1         0.9440    0.2980    0.1070 C.2     1  UNL1        0.2647
      3  N1        -0.2500   -0.4750   -0.1660 N.am    1  UNL1       -0.3097
      4  C2        -1.5640    0.0870    0.0480 C.3     1  UNL1        0.0159
      5  C3        -2.5950   -0.9530   -0.3220 C.3     1  UNL1       -0.0120
      6  C4        -3.9390   -0.3680   -0.1010 C.ar    1  UNL1       -0.0432
      7  C5        -4.5450    0.3060   -1.1350 C.ar    1  UNL1       -0.0584
      8  C6        -5.8110    0.8750   -0.9780 C.ar    1  UNL1       -0.0588
      9  C7        -6.4360    0.7410    0.2480 C.ar    1  UNL1       -0.0264
     10  C8        -5.8200    0.0620    1.2830 C.ar    1  UNL1        0.1237
     11  F1        -6.4290   -0.0670    2.4740 F       1  UNL1       -0.2055
     12  C9        -4.5520   -0.5070    1.1230 C.ar    1  UNL1       -0.0232
     13  C10        2.2230   -0.3460   -0.1360 C.ar    1  UNL1        0.1533
     14  N2         2.2450   -1.6320   -0.6030 N.ar    1  UNL1       -0.1656
     15  N3         3.3390   -2.3060   -0.8560 N.ar    1  UNL1       -0.2420
     16  C11        4.5440   -1.7420   -0.6590 C.ar    1  UNL1        0.2725
     17  O2         5.5560   -2.4530   -0.9250 O.2     1  UNL1       -0.2658
     18  C12        4.6530   -0.4570   -0.1940 C.ar    1  UNL1        0.0501
     19  C13        5.8900    0.1110    0.0040 C.ar    1  UNL1       -0.0487
     20  C14        5.9630    1.3980    0.4700 C.ar    1  UNL1       -0.0610
     21  C15        4.7930    2.0680    0.7220 C.ar    1  UNL1       -0.0611
     22  C16        3.5260    1.5170    0.5310 C.ar    1  UNL1       -0.0516
     23  C17        3.4560    0.2290    0.0640 C.ar    1  UNL1        0.0195
     24 H          -0.1652   -1.3964   -0.5022 H       1  UNL1        0.1491
     25 H          -1.6900    0.9546   -0.5654 H       1  UNL1        0.0465
     26 H          -1.6796    0.3699    1.0734 H       1  UNL1        0.0465
     27 H          -2.4716   -1.8205    0.2920 H       1  UNL1        0.0328
     28 H          -2.4799   -1.2412   -1.3460 H       1  UNL1        0.0328
     29 H          -4.0573    0.3928   -2.0404 H       1  UNL1        0.0620
     30 H          -6.2663    1.3804   -1.7541 H       1  UNL1        0.0619
     31 H          -7.3717    1.1519    0.3920 H       1  UNL1        0.0646
     32 H          -4.0925   -1.0133    1.8960 H       1  UNL1        0.0649
     33 H           3.2791   -3.2295   -1.1918 H       1  UNL1        0.1921
     34 H           6.7499   -0.4236   -0.1952 H       1  UNL1        0.0625
     35 H           6.8763    1.8520    0.6275 H       1  UNL1        0.0618
     36 H           4.8537    3.0364    1.0735 H       1  UNL1        0.0618
     37 H           2.6715    2.0590    0.7338 H       1  UNL1        0.0624
@<TRIPOS>BOND
     1     1     2    2
     2     2     3   am
     3     2    13    1
     4     3     4    1
     5     4     5    1
     6     5     6    1
     7     6     7   ar
     8     6    12   ar
     9     7     8   ar
    10     8     9   ar
    11     9    10   ar
    12    10    11    1
    13    10    12   ar
    14    13    14   ar
    15    13    23   ar
    16    14    15   ar
    17    15    16   ar
    18    16    17    2
    19    16    18   ar
    20    18    19   ar
    21    18    23   ar
    22    19    20   ar
    23    20    21   ar
    24    21    22   ar
    25    22    23   ar
    26     3    24    1
    27     4    25    1
    28     4    26    1
    29     5    27    1
    30     5    28    1
    31     7    29    1
    32     8    30    1
    33     9    31    1
    34    12    32    1
    35    15    33    1
    36    19    34    1
    37    20    35    1
    38    21    36    1
    39    22    37    1
@<TRIPOS>MOLECULE
../data/bude_mols_rdkit_confs2/molecule_45.pdb
 37 39 0 0 0
SMALL
GASTEIGER

@<TRIPOS>ATOM
      1  O1        -0.0420    0.6060   -1.7630 O.2     1  UNL1       -0.2684
      2  C1        -0.7230    0.5210   -0.6760 C.2     1  UNL1        0.2647
      3  N1        -0.0790   -0.0470    0.4420 N.am    1  UNL1       -0.3097
      4  C2         1.2770   -0.5410    0.4010 C.3     1  UNL1        0.0159
      5  C3         2.2500    0.5330    0.0720 C.3     1  UNL1       -0.0120
      6  C4         3.6370   -0.0090    0.0460 C.ar    1  UNL1       -0.0432
      7  C5         4.1350   -0.5000   -1.1350 C.ar    1  UNL1       -0.0584
      8  C6         5.4130   -1.0120   -1.2080 C.ar    1  UNL1       -0.0588
      9  C7         6.1840   -1.0260   -0.0830 C.ar    1  UNL1       -0.0264
     10  C8         5.7010   -0.5410    1.0920 C.ar    1  UNL1        0.1237
     11  F1         6.4620   -0.5520    2.2130 F       1  UNL1       -0.2055
     12  C9         4.4150   -0.0250    1.1730 C.ar    1  UNL1       -0.0232
     13  C10       -2.0770    1.0070   -0.6430 C.ar    1  UNL1        0.1533
     14  N2        -2.3660    2.2060   -1.1670 N.ar    1  UNL1       -0.1656
     15  N3        -3.5820    2.7120   -1.1890 N.ar    1  UNL1       -0.2420
     16  C11       -4.5960    2.0040   -0.6660 C.ar    1  UNL1        0.2725
     17  O2        -5.7750    2.4620   -0.6700 O.2     1  UNL1       -0.2658
     18  C12       -4.4000    0.7490   -0.1010 C.ar    1  UNL1        0.0501
     19  C13       -5.4560    0.0340    0.4010 C.ar    1  UNL1       -0.0487
     20  C14       -5.2660   -1.2150    0.9260 C.ar    1  UNL1       -0.0610
     21  C15       -4.0110   -1.7280    0.9370 C.ar    1  UNL1       -0.0611
     22  C16       -2.9340   -1.0000    0.4260 C.ar    1  UNL1       -0.0516
     23  C17       -3.0920    0.2620   -0.1060 C.ar    1  UNL1        0.0195
     24 H          -0.5765   -0.1097    1.2892 H       1  UNL1        0.1491
     25 H           1.3434   -1.3072   -0.3429 H       1  UNL1        0.0465
     26 H           1.5199   -0.9219    1.3710 H       1  UNL1        0.0465
     27 H           2.1870    1.3037    0.8116 H       1  UNL1        0.0328
     28 H           2.0151    0.9284   -0.8941 H       1  UNL1        0.0328
     29 H           3.5440   -0.4857   -1.9809 H       1  UNL1        0.0620
     30 H           5.7805   -1.3789   -2.0998 H       1  UNL1        0.0619
     31 H           7.1419   -1.4078   -0.1238 H       1  UNL1        0.0646
     32 H           4.0514    0.3403    2.0671 H       1  UNL1        0.0649
     33 H          -3.7454    3.5988   -1.5842 H       1  UNL1        0.1921
     34 H          -6.4038    0.4418    0.3828 H       1  UNL1        0.0625
     35 H          -6.0599   -1.7545    1.3051 H       1  UNL1        0.0618
     36 H          -3.8493   -2.6692    1.3282 H       1  UNL1        0.0618
     37 H          -1.9914   -1.4196    0.4473 H       1  UNL1        0.0624
@<TRIPOS>BOND
     1     1     2    2
     2     2     3   am
     3     2    13    1
     4     3     4    1
     5     4     5    1
     6     5     6    1
     7     6     7   ar
     8     6    12   ar
     9     7     8   ar
    10     8     9   ar
    11     9    10   ar
    12    10    11    1
    13    10    12   ar
    14    13    14   ar
    15    13    23   ar
    16    14    15   ar
    17    15    16   ar
    18    16    17    2
    19    16    18   ar
    20    18    19   ar
    21    18    23   ar
    22    19    20   ar
    23    20    21   ar
    24    21    22   ar
    25    22    23   ar
    26     3    24    1
    27     4    25    1
    28     4    26    1
    29     5    27    1
    30     5    28    1
    31     7    29    1
    32     8    30    1
    33     9    31    1
    34    12    32    1
    35    15    33    1
    36    19    34    1
    37    20    35    1
    38    21    36    1
    39    22    37    1
@<TRIPOS>MOLECULE
../data/bude_mols_rdkit_confs2/molecule_45.pdb
 37 39 0 0 0
SMALL
GASTEIGER

@<TRIPOS>ATOM
      1  O1        -0.2900    0.9350   -0.0540 O.2     1  UNL1       -0.2684
      2  C1        -0.8040   -0.1290   -0.4320 C.2     1  UNL1        0.2647
      3  N1         0.1730   -1.0940   -0.8870 N.am    1  UNL1       -0.3097
      4  C2         1.5600   -0.7940   -0.8750 C.3     1  UNL1        0.0159
      5  C3         2.1470   -0.4760    0.4810 C.3     1  UNL1       -0.0120
      6  C4         3.5840   -0.1980    0.2740 C.ar    1  UNL1       -0.0432
      7  C5         4.5160   -1.1960    0.3350 C.ar    1  UNL1       -0.0584
      8  C6         5.8640   -0.9440    0.1420 C.ar    1  UNL1       -0.0588
      9  C7         6.2990    0.3380   -0.1190 C.ar    1  UNL1       -0.0264
     10  C8         5.3380    1.3220   -0.1750 C.ar    1  UNL1        0.1237
     11  F1         5.7530    2.6020   -0.4340 F       1  UNL1       -0.2055
     12  C9         3.9880    1.0830    0.0160 C.ar    1  UNL1       -0.0232
     13  C10       -2.2040   -0.4990   -0.4690 C.ar    1  UNL1        0.1533
     14  N2        -2.5440   -1.7360   -0.9280 N.ar    1  UNL1       -0.1656
     15  N3        -3.7710   -2.1930   -1.0120 N.ar    1  UNL1       -0.2420
     16  C11       -4.7640   -1.3850   -0.6180 C.ar    1  UNL1        0.2725
     17  O2        -5.9530   -1.7970   -0.6870 O.2     1  UNL1       -0.2658
     18  C12       -4.5030   -0.1030   -0.1350 C.ar    1  UNL1        0.0501
     19  C13       -5.5350    0.7180    0.2680 C.ar    1  UNL1       -0.0487
     20  C14       -5.2770    1.9940    0.7490 C.ar    1  UNL1       -0.0610
     21  C15       -3.9910    2.4490    0.8280 C.ar    1  UNL1       -0.0611
     22  C16       -2.9480    1.6230    0.4220 C.ar    1  UNL1       -0.0516
     23  C17       -3.1960    0.3560   -0.0560 C.ar    1  UNL1        0.0195
     24 H          -0.1293   -1.9734   -1.2103 H       1  UNL1        0.1491
     25 H           1.7193    0.0527   -1.5096 H       1  UNL1        0.0465
     26 H           2.0548   -1.6826   -1.2074 H       1  UNL1        0.0465
     27 H           2.0251   -1.3106    1.1394 H       1  UNL1        0.0328
     28 H           1.6547    0.3648    0.9232 H       1  UNL1        0.0328
     29 H           4.2074   -2.1613    0.5297 H       1  UNL1        0.0620
     30 H           6.5448   -1.7179    0.1937 H       1  UNL1        0.0619
     31 H           7.2983    0.5500   -0.2655 H       1  UNL1        0.0646
     32 H           3.3027    1.8530   -0.0350 H       1  UNL1        0.0649
     33 H          -3.9554   -3.0981   -1.3527 H       1  UNL1        0.1921
     34 H          -6.5086    0.3804    0.2114 H       1  UNL1        0.0625
     35 H          -6.0573    2.5999    1.0474 H       1  UNL1        0.0618
     36 H          -3.7953    3.3970    1.1857 H       1  UNL1        0.0618
     37 H          -1.9758    1.9644    0.4799 H       1  UNL1        0.0624
@<TRIPOS>BOND
     1     1     2    2
     2     2     3   am
     3     2    13    1
     4     3     4    1
     5     4     5    1
     6     5     6    1
     7     6     7   ar
     8     6    12   ar
     9     7     8   ar
    10     8     9   ar
    11     9    10   ar
    12    10    11    1
    13    10    12   ar
    14    13    14   ar
    15    13    23   ar
    16    14    15   ar
    17    15    16   ar
    18    16    17    2
    19    16    18   ar
    20    18    19   ar
    21    18    23   ar
    22    19    20   ar
    23    20    21   ar
    24    21    22   ar
    25    22    23   ar
    26     3    24    1
    27     4    25    1
    28     4    26    1
    29     5    27    1
    30     5    28    1
    31     7    29    1
    32     8    30    1
    33     9    31    1
    34    12    32    1
    35    15    33    1
    36    19    34    1
    37    20    35    1
    38    21    36    1
    39    22    37    1
@<TRIPOS>MOLECULE
../data/bude_mols_rdkit_confs2/molecule_45.pdb
 37 39 0 0 0
SMALL
GASTEIGER

@<TRIPOS>ATOM
      1  O1         0.0230    2.3740   -0.3400 O.2     1  UNL1       -0.2684
      2  C1         0.4240    1.1570   -0.3790 C.2     1  UNL1        0.2647
      3  N1        -0.3050    0.3210   -1.2490 N.am    1  UNL1       -0.3097
      4  C2        -1.4060    0.8030   -2.0520 C.3     1  UNL1        0.0159
      5  C3        -2.5180    1.3370   -1.2690 C.3     1  UNL1       -0.0120
      6  C4        -3.1820    0.4480   -0.3300 C.ar    1  UNL1       -0.0432
      7  C5        -4.2570   -0.3620   -0.6310 C.ar    1  UNL1       -0.0584
      8  C6        -4.8600   -1.1830    0.2780 C.ar    1  UNL1       -0.0588
      9  C7        -4.3950   -1.2220    1.5550 C.ar    1  UNL1       -0.0264
     10  C8        -3.3230   -0.4350    1.9160 C.ar    1  UNL1        0.1237
     11  F1        -2.8960   -0.5100    3.1980 F       1  UNL1       -0.2055
     12  C9        -2.7210    0.3980    0.9700 C.ar    1  UNL1       -0.0232
     13  C10        1.5420    0.7630    0.4500 C.ar    1  UNL1        0.1533
     14  N2         1.5710    1.1730    1.7640 N.ar    1  UNL1       -0.1656
     15  N3         2.5470    0.8730    2.5850 N.ar    1  UNL1       -0.2420
     16  C11        3.5930    0.1370    2.1880 C.ar    1  UNL1        0.2725
     17  O2         4.4910   -0.1150    3.0230 O.2     1  UNL1       -0.2658
     18  C12        3.5940   -0.2870    0.8740 C.ar    1  UNL1        0.0501
     19  C13        4.6650   -1.0170    0.4320 C.ar    1  UNL1       -0.0487
     20  C14        4.7380   -1.4460   -0.8800 C.ar    1  UNL1       -0.0610
     21  C15        3.7190   -1.1320   -1.7530 C.ar    1  UNL1       -0.0611
     22  C16        2.6110   -0.3900   -1.3360 C.ar    1  UNL1       -0.0516
     23  C17        2.5740    0.0150   -0.0240 C.ar    1  UNL1        0.0195
     24 H          -0.0542   -0.6289   -1.3122 H       1  UNL1        0.1491
     25 H          -1.7709   -0.0087   -2.6460 H       1  UNL1        0.0465
     26 H          -1.0286    1.6086   -2.6466 H       1  UNL1        0.0465
     27 H          -3.2588    1.6791   -1.9611 H       1  UNL1        0.0328
     28 H          -2.0730    2.0907   -0.6535 H       1  UNL1        0.0328
     29 H          -4.6253   -0.3467   -1.5949 H       1  UNL1        0.0620
     30 H          -5.6620   -1.7691   -0.0018 H       1  UNL1        0.0619
     31 H          -4.8430   -1.8384    2.2510 H       1  UNL1        0.0646
     32 H          -1.9190    0.9852    1.2475 H       1  UNL1        0.0649
     33 H           2.5106    1.1958    3.5144 H       1  UNL1        0.1921
     34 H           5.4277   -1.2499    1.0871 H       1  UNL1        0.0625
     35 H           5.5488   -1.9968   -1.2030 H       1  UNL1        0.0618
     36 H           3.7753   -1.4508   -2.7329 H       1  UNL1        0.0618
     37 H           1.8481   -0.1548   -1.9900 H       1  UNL1        0.0624
@<TRIPOS>BOND
     1     1     2    2
     2     2     3   am
     3     2    13    1
     4     3     4    1
     5     4     5    1
     6     5     6    1
     7     6     7   ar
     8     6    12   ar
     9     7     8   ar
    10     8     9   ar
    11     9    10   ar
    12    10    11    1
    13    10    12   ar
    14    13    14   ar
    15    13    23   ar
    16    14    15   ar
    17    15    16   ar
    18    16    17    2
    19    16    18   ar
    20    18    19   ar
    21    18    23   ar
    22    19    20   ar
    23    20    21   ar
    24    21    22   ar
    25    22    23   ar
    26     3    24    1
    27     4    25    1
    28     4    26    1
    29     5    27    1
    30     5    28    1
    31     7    29    1
    32     8    30    1
    33     9    31    1
    34    12    32    1
    35    15    33    1
    36    19    34    1
    37    20    35    1
    38    21    36    1
    39    22    37    1
@<TRIPOS>MOLECULE
../data/bude_mols_rdkit_confs2/molecule_45.pdb
 37 39 0 0 0
SMALL
GASTEIGER

@<TRIPOS>ATOM
      1  O1        -0.2390    2.1120   -1.4640 O.2     1  UNL1       -0.2684
      2  C1        -0.5050    0.9980   -0.8870 C.2     1  UNL1        0.2647
      3  N1         0.2610   -0.1160   -1.2690 N.am    1  UNL1       -0.3097
      4  C2         1.2850   -0.0140   -2.2730 C.3     1  UNL1        0.0159
      5  C3         2.3810    0.9350   -1.8570 C.3     1  UNL1       -0.0120
      6  C4         3.0430    0.4800   -0.6110 C.ar    1  UNL1       -0.0432
      7  C5         4.1150   -0.4010   -0.6430 C.ar    1  UNL1       -0.0584
      8  C6         4.7460   -0.8270    0.5020 C.ar    1  UNL1       -0.0588
      9  C7         4.2870   -0.3560    1.6990 C.ar    1  UNL1       -0.0264
     10  C8         3.2380    0.5100    1.7880 C.ar    1  UNL1        0.1237
     11  F1         2.7620    0.9940    2.9800 F       1  UNL1       -0.2055
     12  C9         2.6110    0.9300    0.6120 C.ar    1  UNL1       -0.0232
     13  C10       -1.5350    0.8960    0.1130 C.ar    1  UNL1        0.1533
     14  N2        -1.5700    1.8360    1.1050 N.ar    1  UNL1       -0.1656
     15  N3        -2.4730    1.8410    2.0540 N.ar    1  UNL1       -0.2420
     16  C11       -3.4050    0.8790    2.0500 C.ar    1  UNL1        0.2725
     17  O2        -4.2960    0.8350    2.9410 O.2     1  UNL1       -0.2658
     18  C12       -3.4290   -0.1160    1.0600 C.ar    1  UNL1        0.0501
     19  C13       -4.4160   -1.0710    1.0730 C.ar    1  UNL1       -0.0487
     20  C14       -4.4580   -2.0210    0.0940 C.ar    1  UNL1       -0.0610
     21  C15       -3.5230   -2.0360   -0.9090 C.ar    1  UNL1       -0.0611
     22  C16       -2.5340   -1.0720   -0.9140 C.ar    1  UNL1       -0.0516
     23  C17       -2.4650   -0.1080    0.0570 C.ar    1  UNL1        0.0195
     24 H           0.0928   -0.9858   -0.8396 H       1  UNL1        0.1491
     25 H           0.8455    0.3407   -3.1818 H       1  UNL1        0.0465
     26 H           1.7168   -0.9835   -2.4090 H       1  UNL1        0.0465
     27 H           1.9591    1.9046   -1.6935 H       1  UNL1        0.0328
     28 H           3.1135    0.9675   -2.6363 H       1  UNL1        0.0328
     29 H           4.4493   -0.7476   -1.5558 H       1  UNL1        0.0620
     30 H           5.5419   -1.4825    0.4582 H       1  UNL1        0.0619
     31 H           4.7508   -0.6668    2.5670 H       1  UNL1        0.0646
     32 H           1.8152    1.5850    0.6633 H       1  UNL1        0.0649
     33 H          -2.4668    2.5345    2.7527 H       1  UNL1        0.1921
     34 H          -5.1254   -1.0702    1.8225 H       1  UNL1        0.0625
     35 H          -5.2019   -2.7362    0.1087 H       1  UNL1        0.0618
     36 H          -3.5578   -2.7557   -1.6478 H       1  UNL1        0.0618
     37 H          -1.8294   -1.0780   -1.6680 H       1  UNL1        0.0624
@<TRIPOS>BOND
     1     1     2    2
     2     2     3   am
     3     2    13    1
     4     3     4    1
     5     4     5    1
     6     5     6    1
     7     6     7   ar
     8     6    12   ar
     9     7     8   ar
    10     8     9   ar
    11     9    10   ar
    12    10    11    1
    13    10    12   ar
    14    13    14   ar
    15    13    23   ar
    16    14    15   ar
    17    15    16   ar
    18    16    17    2
    19    16    18   ar
    20    18    19   ar
    21    18    23   ar
    22    19    20   ar
    23    20    21   ar
    24    21    22   ar
    25    22    23   ar
    26     3    24    1
    27     4    25    1
    28     4    26    1
    29     5    27    1
    30     5    28    1
    31     7    29    1
    32     8    30    1
    33     9    31    1
    34    12    32    1
    35    15    33    1
    36    19    34    1
    37    20    35    1
    38    21    36    1
    39    22    37    1
@<TRIPOS>MOLECULE
../data/bude_mols_rdkit_confs2/molecule_45.pdb
 37 39 0 0 0
SMALL
GASTEIGER

@<TRIPOS>ATOM
      1  O1        -0.7650   -2.1290    0.8510 O.2     1  UNL1       -0.2684
      2  C1        -0.6540   -1.1450    0.1060 C.2     1  UNL1        0.2647
      3  N1         0.6570   -1.0440   -0.5200 N.am    1  UNL1       -0.3097
      4  C2         1.6490   -2.0260   -0.2430 C.3     1  UNL1        0.0159
      5  C3         2.9120   -1.7160   -0.9930 C.3     1  UNL1       -0.0120
      6  C4         3.4870   -0.4220   -0.6420 C.ar    1  UNL1       -0.0432
      7  C5         3.2290    0.7210   -1.3660 C.ar    1  UNL1       -0.0584
      8  C6         3.8280    1.8980   -0.9180 C.ar    1  UNL1       -0.0588
      9  C7         4.6360    1.9650    0.1750 C.ar    1  UNL1       -0.0264
     10  C8         4.8810    0.8060    0.8860 C.ar    1  UNL1        0.1237
     11  F1         5.6920    0.8370    1.9950 F       1  UNL1       -0.2055
     12  C9         4.3160   -0.3780    0.4870 C.ar    1  UNL1       -0.0232
     13  C10       -1.6470   -0.1230   -0.1990 C.ar    1  UNL1        0.1533
     14  N2        -1.3350    0.8880   -1.0490 N.ar    1  UNL1       -0.1656
     15  N3        -2.2010    1.8300   -1.3510 N.ar    1  UNL1       -0.2420
     16  C11       -3.4410    1.8740   -0.8570 C.ar    1  UNL1        0.2725
     17  O2        -4.2340    2.7920   -1.1730 O.2     1  UNL1       -0.2658
     18  C12       -3.8430    0.8750    0.0220 C.ar    1  UNL1        0.0501
     19  C13       -5.1150    0.8820    0.5560 C.ar    1  UNL1       -0.0487
     20  C14       -5.5270   -0.0980    1.4270 C.ar    1  UNL1       -0.0610
     21  C15       -4.6280   -1.0810    1.7440 C.ar    1  UNL1       -0.0611
     22  C16       -3.3440   -1.0890    1.2060 C.ar    1  UNL1       -0.0516
     23  C17       -2.9100   -0.1190    0.3330 C.ar    1  UNL1        0.0195
     24 H           0.8562   -0.2993   -1.1324 H       1  UNL1        0.1491
     25 H           1.2874   -2.9874   -0.5426 H       1  UNL1        0.0465
     26 H           1.8577   -2.0239    0.8064 H       1  UNL1        0.0465
     27 H           2.6945   -1.7184   -2.0407 H       1  UNL1        0.0328
     28 H           3.6297   -2.4645   -0.7293 H       1  UNL1        0.0328
     29 H           2.6215    0.7071   -2.2001 H       1  UNL1        0.0620
     30 H           3.6485    2.7670   -1.4449 H       1  UNL1        0.0619
     31 H           5.0563    2.8614    0.4662 H       1  UNL1        0.0646
     32 H           4.5023   -1.2413    1.0210 H       1  UNL1        0.0649
     33 H          -1.9209    2.5395   -1.9734 H       1  UNL1        0.1921
     34 H          -5.7691    1.6369    0.2967 H       1  UNL1        0.0625
     35 H          -6.4783   -0.0932    1.8271 H       1  UNL1        0.0618
     36 H          -4.9080   -1.8312    2.3950 H       1  UNL1        0.0618
     37 H          -2.6966   -1.8477    1.4710 H       1  UNL1        0.0624
@<TRIPOS>BOND
     1     1     2    2
     2     2     3   am
     3     2    13    1
     4     3     4    1
     5     4     5    1
     6     5     6    1
     7     6     7   ar
     8     6    12   ar
     9     7     8   ar
    10     8     9   ar
    11     9    10   ar
    12    10    11    1
    13    10    12   ar
    14    13    14   ar
    15    13    23   ar
    16    14    15   ar
    17    15    16   ar
    18    16    17    2
    19    16    18   ar
    20    18    19   ar
    21    18    23   ar
    22    19    20   ar
    23    20    21   ar
    24    21    22   ar
    25    22    23   ar
    26     3    24    1
    27     4    25    1
    28     4    26    1
    29     5    27    1
    30     5    28    1
    31     7    29    1
    32     8    30    1
    33     9    31    1
    34    12    32    1
    35    15    33    1
    36    19    34    1
    37    20    35    1
    38    21    36    1
    39    22    37    1
@<TRIPOS>MOLECULE
../data/bude_mols_rdkit_confs2/molecule_45.pdb
 37 39 0 0 0
SMALL
GASTEIGER

@<TRIPOS>ATOM
      1  O1         0.9350    1.8460    1.2320 O.2     1  UNL1       -0.2684
      2  C1         0.7090    0.6790    0.8800 C.2     1  UNL1        0.2647
      3  N1        -0.6950    0.3040    1.0060 N.am    1  UNL1       -0.3097
      4  C2        -1.6450    1.2740    1.5030 C.3     1  UNL1        0.0159
      5  C3        -3.0330    0.7490    1.5740 C.3     1  UNL1       -0.0120
      6  C4        -3.5930    0.3090    0.2900 C.ar    1  UNL1       -0.0432
      7  C5        -3.5100   -0.9620   -0.1790 C.ar    1  UNL1       -0.0584
      8  C6        -4.0720   -1.2590   -1.4090 C.ar    1  UNL1       -0.0588
      9  C7        -4.7100   -0.3320   -2.1820 C.ar    1  UNL1       -0.0264
     10  C8        -4.7870    0.9550   -1.6940 C.ar    1  UNL1        0.1237
     11  F1        -5.4210    1.8970   -2.4510 F       1  UNL1       -0.2055
     12  C9        -4.2370    1.2670   -0.4780 C.ar    1  UNL1       -0.0232
     13  C10        1.6530   -0.2940    0.3840 C.ar    1  UNL1        0.1533
     14  N2         1.2090   -1.5490    0.0420 N.ar    1  UNL1       -0.1656
     15  N3         2.0210   -2.4710   -0.4130 N.ar    1  UNL1       -0.2420
     16  C11        3.3330   -2.2640   -0.5780 C.ar    1  UNL1        0.2725
     17  O2         4.0980   -3.1830   -1.0240 O.2     1  UNL1       -0.2658
     18  C12        3.8630   -1.0350   -0.2600 C.ar    1  UNL1        0.0501
     19  C13        5.2150   -0.8400   -0.4360 C.ar    1  UNL1       -0.0487
     20  C14        5.7530    0.3890   -0.1190 C.ar    1  UNL1       -0.0610
     21  C15        4.9030    1.3640    0.3600 C.ar    1  UNL1       -0.0611
     22  C16        3.5300    1.1500    0.5340 C.ar    1  UNL1       -0.0516
     23  C17        2.9910   -0.0570    0.2250 C.ar    1  UNL1        0.0195
     24 H          -0.9927   -0.6003    0.7552 H       1  UNL1        0.1491
     25 H          -1.6354    2.1237    0.8528 H       1  UNL1        0.0465
     26 H          -1.3492    1.5278    2.4995 H       1  UNL1        0.0465
     27 H          -3.6616    1.5224    1.9634 H       1  UNL1        0.0328
     28 H          -2.9943   -0.1192    2.1983 H       1  UNL1        0.0328
     29 H          -3.0360   -1.6947    0.3719 H       1  UNL1        0.0620
     30 H          -4.0054   -2.2278   -1.7583 H       1  UNL1        0.0619
     31 H          -5.1184   -0.5847   -3.0954 H       1  UNL1        0.0646
     32 H          -4.3036    2.2351   -0.1267 H       1  UNL1        0.0649
     33 H           1.6504   -3.3535   -0.6433 H       1  UNL1        0.1921
     34 H           5.8134   -1.5989   -0.7980 H       1  UNL1        0.0625
     35 H           6.7615    0.5740   -0.2365 H       1  UNL1        0.0618
     36 H           5.2945    2.2882    0.5998 H       1  UNL1        0.0618
     37 H           2.9298    1.9075    0.8960 H       1  UNL1        0.0624
@<TRIPOS>BOND
     1     1     2    2
     2     2     3   am
     3     2    13    1
     4     3     4    1
     5     4     5    1
     6     5     6    1
     7     6     7   ar
     8     6    12   ar
     9     7     8   ar
    10     8     9   ar
    11     9    10   ar
    12    10    11    1
    13    10    12   ar
    14    13    14   ar
    15    13    23   ar
    16    14    15   ar
    17    15    16   ar
    18    16    17    2
    19    16    18   ar
    20    18    19   ar
    21    18    23   ar
    22    19    20   ar
    23    20    21   ar
    24    21    22   ar
    25    22    23   ar
    26     3    24    1
    27     4    25    1
    28     4    26    1
    29     5    27    1
    30     5    28    1
    31     7    29    1
    32     8    30    1
    33     9    31    1
    34    12    32    1
    35    15    33    1
    36    19    34    1
    37    20    35    1
    38    21    36    1
    39    22    37    1
@<TRIPOS>MOLECULE
../data/bude_mols_rdkit_confs2/molecule_45.pdb
 37 39 0 0 0
SMALL
GASTEIGER

@<TRIPOS>ATOM
      1  O1        -0.2170   -0.9750    1.8850 O.2     1  UNL1       -0.2684
      2  C1        -0.8310   -0.9600    0.7710 C.2     1  UNL1        0.2647
      3  N1        -0.0820   -1.0360   -0.4140 N.am    1  UNL1       -0.3097
      4  C2         1.3880   -1.1010   -0.4520 C.3     1  UNL1        0.0159
      5  C3         1.9330    0.1230    0.1600 C.3     1  UNL1       -0.0120
      6  C4         3.4090    0.1990    0.1860 C.ar    1  UNL1       -0.0432
      7  C5         4.1900   -0.2620    1.2080 C.ar    1  UNL1       -0.0584
      8  C6         5.5670   -0.1670    1.1800 C.ar    1  UNL1       -0.0588
      9  C7         6.2040    0.4160    0.0810 C.ar    1  UNL1       -0.0264
     10  C8         5.4340    0.8810   -0.9480 C.ar    1  UNL1        0.1237
     11  F1         6.0590    1.4470   -2.0130 F       1  UNL1       -0.2055
     12  C9         4.0410    0.7730   -0.8950 C.ar    1  UNL1       -0.0232
     13  C10       -2.2760   -0.8720    0.8400 C.ar    1  UNL1        0.1533
     14  N2        -2.9360   -1.6510    1.7520 N.ar    1  UNL1       -0.1656
     15  N3        -4.2350   -1.6510    1.9210 N.ar    1  UNL1       -0.2420
     16  C11       -4.9850   -0.8380    1.1570 C.ar    1  UNL1        0.2725
     17  O2        -6.2540   -0.8220    1.3010 O.2     1  UNL1       -0.2658
     18  C12       -4.3900   -0.0160    0.2110 C.ar    1  UNL1        0.0501
     19  C13       -5.1380    0.8480   -0.5640 C.ar    1  UNL1       -0.0487
     20  C14       -4.5690    1.6960   -1.4890 C.ar    1  UNL1       -0.0610
     21  C15       -3.2040    1.6880   -1.6500 C.ar    1  UNL1       -0.0611
     22  C16       -2.4480    0.8200   -0.8720 C.ar    1  UNL1       -0.0516
     23  C17       -3.0200   -0.0290    0.0480 C.ar    1  UNL1        0.0195
     24 H          -0.5685   -1.0464   -1.2698 H       1  UNL1        0.1491
     25 H           1.7187   -1.1736   -1.4670 H       1  UNL1        0.0465
     26 H           1.7281   -1.9600    0.0878 H       1  UNL1        0.0465
     27 H           1.5791    0.1769    1.1684 H       1  UNL1        0.0328
     28 H           1.6002    0.9378   -0.4485 H       1  UNL1        0.0328
     29 H           3.7359   -0.6952    2.0273 H       1  UNL1        0.0620
     30 H           6.1256   -0.5262    1.9699 H       1  UNL1        0.0619
     31 H           7.2325    0.4936    0.0473 H       1  UNL1        0.0646
     32 H           3.4754    1.1302   -1.6809 H       1  UNL1        0.0649
     33 H          -4.6537   -2.2348    2.5941 H       1  UNL1        0.1921
     34 H          -6.1632    0.8590   -0.4458 H       1  UNL1        0.0625
     35 H          -5.1590    2.3278   -2.0526 H       1  UNL1        0.0618
     36 H          -2.7504    2.3134   -2.3342 H       1  UNL1        0.0618
     37 H          -1.4226    0.8115   -0.9879 H       1  UNL1        0.0624
@<TRIPOS>BOND
     1     1     2    2
     2     2     3   am
     3     2    13    1
     4     3     4    1
     5     4     5    1
     6     5     6    1
     7     6     7   ar
     8     6    12   ar
     9     7     8   ar
    10     8     9   ar
    11     9    10   ar
    12    10    11    1
    13    10    12   ar
    14    13    14   ar
    15    13    23   ar
    16    14    15   ar
    17    15    16   ar
    18    16    17    2
    19    16    18   ar
    20    18    19   ar
    21    18    23   ar
    22    19    20   ar
    23    20    21   ar
    24    21    22   ar
    25    22    23   ar
    26     3    24    1
    27     4    25    1
    28     4    26    1
    29     5    27    1
    30     5    28    1
    31     7    29    1
    32     8    30    1
    33     9    31    1
    34    12    32    1
    35    15    33    1
    36    19    34    1
    37    20    35    1
    38    21    36    1
    39    22    37    1
@<TRIPOS>MOLECULE
../data/bude_mols_rdkit_confs2/molecule_45.pdb
 37 39 0 0 0
SMALL
GASTEIGER

@<TRIPOS>ATOM
      1  O1         0.3680   -0.3080    2.5170 O.2     1  UNL1       -0.2684
      2  C1         0.8670   -0.5190    1.3520 C.2     1  UNL1        0.2647
      3  N1        -0.0220   -0.4150    0.2870 N.am    1  UNL1       -0.3097
      4  C2        -1.4410   -0.0610    0.4660 C.3     1  UNL1        0.0159
      5  C3        -2.1640   -0.0230   -0.8690 C.3     1  UNL1       -0.0120
      6  C4        -3.5640    0.3350   -0.5990 C.ar    1  UNL1       -0.0432
      7  C5        -3.9350    1.6540   -0.5900 C.ar    1  UNL1       -0.0584
      8  C6        -5.2590    2.0080   -0.3360 C.ar    1  UNL1       -0.0588
      9  C7        -6.1810    0.9990   -0.0950 C.ar    1  UNL1       -0.0264
     10  C8        -5.8270   -0.3400   -0.0990 C.ar    1  UNL1        0.1237
     11  F1        -6.6940   -1.3410    0.1300 F       1  UNL1       -0.2055
     12  C9        -4.4900   -0.6460   -0.3590 C.ar    1  UNL1       -0.0232
     13  C10        2.2810   -0.8520    1.2250 C.ar    1  UNL1        0.1533
     14  N2         2.8160   -1.7740    2.0800 N.ar    1  UNL1       -0.1656
     15  N3         4.0600   -2.1330    2.0630 N.ar    1  UNL1       -0.2420
     16  C11        4.9080   -1.6040    1.1830 C.ar    1  UNL1        0.2725
     17  O2         6.1220   -1.9330    1.1400 O.2     1  UNL1       -0.2658
     18  C12        4.4470   -0.6650    0.2880 C.ar    1  UNL1        0.0501
     19  C13        5.3500   -0.1130   -0.5930 C.ar    1  UNL1       -0.0487
     20  C14        4.9010    0.8470   -1.4680 C.ar    1  UNL1       -0.0610
     21  C15        3.5850    1.2390   -1.4560 C.ar    1  UNL1       -0.0611
     22  C16        2.6720    0.6830   -0.5680 C.ar    1  UNL1       -0.0516
     23  C17        3.1100   -0.2730    0.3020 C.ar    1  UNL1        0.0195
     24 H           0.3107   -0.5849   -0.6238 H       1  UNL1        0.1491
     25 H          -1.5060    0.9025    0.9269 H       1  UNL1        0.0465
     26 H          -1.9027   -0.8032    1.0832 H       1  UNL1        0.0465
     27 H          -2.1158   -0.9832   -1.3388 H       1  UNL1        0.0328
     28 H          -1.7106    0.6907   -1.5247 H       1  UNL1        0.0328
     29 H          -3.2321    2.3874   -0.7718 H       1  UNL1        0.0620
     30 H          -5.5474    2.9988   -0.3273 H       1  UNL1        0.0619
     31 H          -7.1628    1.2549    0.0934 H       1  UNL1        0.0646
     32 H          -4.1921   -1.6340   -0.3707 H       1  UNL1        0.0649
     33 H           4.3822   -2.8040    2.7073 H       1  UNL1        0.1921
     34 H           6.3377   -0.4122   -0.5961 H       1  UNL1        0.0625
     35 H           5.5574    1.2763   -2.1387 H       1  UNL1        0.0618
     36 H           3.2672    1.9618   -2.1205 H       1  UNL1        0.0618
     37 H           1.6855    0.9860   -0.5665 H       1  UNL1        0.0624
@<TRIPOS>BOND
     1     1     2    2
     2     2     3   am
     3     2    13    1
     4     3     4    1
     5     4     5    1
     6     5     6    1
     7     6     7   ar
     8     6    12   ar
     9     7     8   ar
    10     8     9   ar
    11     9    10   ar
    12    10    11    1
    13    10    12   ar
    14    13    14   ar
    15    13    23   ar
    16    14    15   ar
    17    15    16   ar
    18    16    17    2
    19    16    18   ar
    20    18    19   ar
    21    18    23   ar
    22    19    20   ar
    23    20    21   ar
    24    21    22   ar
    25    22    23   ar
    26     3    24    1
    27     4    25    1
    28     4    26    1
    29     5    27    1
    30     5    28    1
    31     7    29    1
    32     8    30    1
    33     9    31    1
    34    12    32    1
    35    15    33    1
    36    19    34    1
    37    20    35    1
    38    21    36    1
    39    22    37    1
@<TRIPOS>MOLECULE
../data/bude_mols_rdkit_confs2/molecule_45.pdb
 37 39 0 0 0
SMALL
GASTEIGER

@<TRIPOS>ATOM
      1  O1        -0.2860   -2.5040   -0.2910 O.2     1  UNL1       -0.2684
      2  C1        -0.8350   -1.3570   -0.4490 C.2     1  UNL1        0.2647
      3  N1         0.0480   -0.2560   -0.3790 N.am    1  UNL1       -0.3097
      4  C2         1.4780   -0.4390   -0.1150 C.3     1  UNL1        0.0159
      5  C3         2.1010    0.9400   -0.1100 C.3     1  UNL1       -0.0120
      6  C4         3.5380    0.8350    0.1490 C.ar    1  UNL1       -0.0432
      7  C5         4.4270    0.6970   -0.8970 C.ar    1  UNL1       -0.0584
      8  C6         5.7760    0.5990   -0.6460 C.ar    1  UNL1       -0.0588
      9  C7         6.2240    0.6420    0.6640 C.ar    1  UNL1       -0.0264
     10  C8         5.3270    0.7800    1.6980 C.ar    1  UNL1        0.1237
     11  F1         5.7580    0.8240    2.9990 F       1  UNL1       -0.2055
     12  C9         3.9740    0.8790    1.4570 C.ar    1  UNL1       -0.0232
     13  C10       -2.2510   -1.3610   -0.6810 C.ar    1  UNL1        0.1533
     14  N2        -2.7380   -2.2850   -1.5850 N.ar    1  UNL1       -0.1656
     15  N3        -4.0230   -2.3630   -1.8530 N.ar    1  UNL1       -0.2420
     16  C11       -4.8940   -1.5390   -1.2460 C.ar    1  UNL1        0.2725
     17  O2        -6.1360   -1.6020   -1.4970 O.2     1  UNL1       -0.2658
     18  C12       -4.4900   -0.6030   -0.3410 C.ar    1  UNL1        0.0501
     19  C13       -5.3440    0.2370    0.3200 C.ar    1  UNL1       -0.0487
     20  C14       -4.9140    1.1490    1.2500 C.ar    1  UNL1       -0.0610
     21  C15       -3.5740    1.2130    1.5200 C.ar    1  UNL1       -0.0611
     22  C16       -2.6500    0.3790    0.8730 C.ar    1  UNL1       -0.0516
     23  C17       -3.1170   -0.5200   -0.0540 C.ar    1  UNL1        0.0195
     24 H          -0.3050    0.6536   -0.5104 H       1  UNL1        0.1491
     25 H           1.9202   -1.0403   -0.8816 H       1  UNL1        0.0465
     26 H           1.6357   -0.9352    0.8198 H       1  UNL1        0.0465
     27 H           1.6448    1.5330    0.6549 H       1  UNL1        0.0328
     28 H           1.9470    1.4003   -1.0636 H       1  UNL1        0.0328
     29 H           4.0797    0.6673   -1.8684 H       1  UNL1        0.0620
     30 H           6.4459    0.4947   -1.4241 H       1  UNL1        0.0619
     31 H           7.2337    0.5703    0.8650 H       1  UNL1        0.0646
     32 H           3.3040    0.9834    2.2350 H       1  UNL1        0.0649
     33 H          -4.3486   -3.0283   -2.5015 H       1  UNL1        0.1921
     34 H          -6.3530    0.1822    0.1103 H       1  UNL1        0.0625
     35 H          -5.5825    1.7696    1.7327 H       1  UNL1        0.0618
     36 H          -3.2342    1.8928    2.2181 H       1  UNL1        0.0618
     37 H          -1.6426    0.4397    1.0887 H       1  UNL1        0.0624
@<TRIPOS>BOND
     1     1     2    2
     2     2     3   am
     3     2    13    1
     4     3     4    1
     5     4     5    1
     6     5     6    1
     7     6     7   ar
     8     6    12   ar
     9     7     8   ar
    10     8     9   ar
    11     9    10   ar
    12    10    11    1
    13    10    12   ar
    14    13    14   ar
    15    13    23   ar
    16    14    15   ar
    17    15    16   ar
    18    16    17    2
    19    16    18   ar
    20    18    19   ar
    21    18    23   ar
    22    19    20   ar
    23    20    21   ar
    24    21    22   ar
    25    22    23   ar
    26     3    24    1
    27     4    25    1
    28     4    26    1
    29     5    27    1
    30     5    28    1
    31     7    29    1
    32     8    30    1
    33     9    31    1
    34    12    32    1
    35    15    33    1
    36    19    34    1
    37    20    35    1
    38    21    36    1
    39    22    37    1
