@<TRIPOS>MOLECULE
../data/bude_mols_rdkit_confs2/molecule_75.pdb
 46 49 0 0 0
SMALL
GASTEIGER

@<TRIPOS>ATOM
      1  C1         6.9940   -1.6820    0.1210 C.3     1  UNL1       -0.0364
      2  C2         6.1260   -0.6010    0.6200 C.ar    1  UNL1       -0.0067
      3  C3         6.4510    0.1650    1.7450 C.ar    1  UNL1        0.0256
      4  N1         5.4410    1.0340    1.8920 N.ar    1  UNL1       -0.2841
      5  N2         4.5350    0.8390    0.9280 N.ar    1  UNL1       -0.1752
      6  C4         4.9390   -0.1680    0.1310 C.ar    1  UNL1        0.1029
      7  C5         4.2490   -0.7280   -1.0650 C.3     1  UNL1        0.1365
      8  O1         3.0460   -0.0790   -1.3310 O.3     1  UNL1       -0.4547
      9  C6         1.9950   -0.0100   -0.4580 C.2     1  UNL1        0.3424
     10  O2         2.0990   -0.5610    0.6670 O.2     1  UNL1       -0.2448
     11  C7         0.7610    0.7070   -0.8390 C.ar    1  UNL1        0.0943
     12  C8        -0.2760    0.8560    0.0600 C.ar    1  UNL1       -0.0414
     13  C9        -1.4440    1.5280   -0.2390 C.ar    1  UNL1       -0.0406
     14  C10       -2.4690    1.6570    0.8050 C.3     1  UNL1        0.0171
     15  C11       -3.2180    0.4220    0.9460 C.ar    1  UNL1        0.0736
     16  N3        -2.7820   -0.4570    1.9010 N.ar    1  UNL1       -0.1750
     17  N4        -3.3060   -1.6240    2.1300 N.ar    1  UNL1       -0.2425
     18  C12       -4.3570   -2.0970    1.4340 C.ar    1  UNL1        0.2725
     19  O3        -4.8760   -3.2120    1.6360 O.2     1  UNL1       -0.2658
     20  C13       -4.8470   -1.2570    0.4540 C.ar    1  UNL1        0.0496
     21  C14       -5.9310   -1.6620   -0.2900 C.ar    1  UNL1       -0.0487
     22  C15       -6.4510   -0.8190   -1.2730 C.ar    1  UNL1       -0.0610
     23  C16       -5.8730    0.4140   -1.4910 C.ar    1  UNL1       -0.0611
     24  C17       -4.7820    0.8260   -0.7460 C.ar    1  UNL1       -0.0521
     25  C18       -4.2860   -0.0090    0.2090 C.ar    1  UNL1        0.0106
     26  C19       -1.5670    2.0620   -1.4850 C.ar    1  UNL1       -0.0555
     27  C20       -0.5230    1.9170   -2.4090 C.ar    1  UNL1       -0.0254
     28  C21        0.6170    1.2540   -2.0940 C.ar    1  UNL1        0.1374
     29  F1         1.6090    1.1200   -2.9820 F       1  UNL1       -0.2046
     30 H           7.8602   -1.7603    0.7442 H       1  UNL1        0.0279
     31 H           7.2950   -1.4633   -0.8822 H       1  UNL1        0.0279
     32 H           6.4571   -2.6074    0.1386 H       1  UNL1        0.0279
     33 H           7.2918    0.0790    2.3372 H       1  UNL1        0.0826
     34 H           5.3761    1.7129    2.6020 H       1  UNL1        0.1882
     35 H           4.0502   -1.7653   -0.8937 H       1  UNL1        0.0765
     36 H           4.8909   -0.5884   -1.9096 H       1  UNL1        0.0765
     37 H          -0.1730    0.4451    1.0011 H       1  UNL1        0.0629
     38 H          -3.1410    2.4469    0.5414 H       1  UNL1        0.0377
     39 H          -1.9864    1.8740    1.7350 H       1  UNL1        0.0377
     40 H          -2.9190   -2.1846    2.8408 H       1  UNL1        0.1921
     41 H          -6.3582   -2.5862   -0.1217 H       1  UNL1        0.0625
     42 H          -7.2643   -1.1168   -1.8342 H       1  UNL1        0.0618
     43 H          -6.2585    1.0366   -2.2181 H       1  UNL1        0.0618
     44 H          -4.3519    1.7494   -0.9111 H       1  UNL1        0.0624
     45 H          -2.4251    2.5714   -1.7482 H       1  UNL1        0.0621
     46 H          -0.6245    2.3246   -3.3516 H       1  UNL1        0.0646
@<TRIPOS>BOND
     1     1     2    1
     2     2     3   ar
     3     2     6   ar
     4     3     4   ar
     5     4     5   ar
     6     5     6   ar
     7     6     7    1
     8     7     8    1
     9     8     9    1
    10     9    10    2
    11     9    11    1
    12    11    12   ar
    13    11    28   ar
    14    12    13   ar
    15    13    14    1
    16    13    26   ar
    17    14    15    1
    18    15    16   ar
    19    15    25   ar
    20    16    17   ar
    21    17    18   ar
    22    18    19    2
    23    18    20   ar
    24    20    21   ar
    25    20    25   ar
    26    21    22   ar
    27    22    23   ar
    28    23    24   ar
    29    24    25   ar
    30    26    27   ar
    31    27    28   ar
    32    28    29    1
    33     1    30    1
    34     1    31    1
    35     1    32    1
    36     3    33    1
    37     4    34    1
    38     7    35    1
    39     7    36    1
    40    12    37    1
    41    14    38    1
    42    14    39    1
    43    17    40    1
    44    21    41    1
    45    22    42    1
    46    23    43    1
    47    24    44    1
    48    26    45    1
    49    27    46    1
@<TRIPOS>MOLECULE
../data/bude_mols_rdkit_confs2/molecule_75.pdb
 46 49 0 0 0
SMALL
GASTEIGER

@<TRIPOS>ATOM
      1  C1         7.4590    0.8530    0.6910 C.3     1  UNL1       -0.0364
      2  C2         6.4870   -0.1390    0.2180 C.ar    1  UNL1       -0.0067
      3  C3         6.7280   -1.3760   -0.3270 C.ar    1  UNL1        0.0256
      4  N1         5.5260   -1.9450   -0.6200 N.ar    1  UNL1       -0.2841
      5  N2         4.5830   -1.0910   -0.2680 N.ar    1  UNL1       -0.1752
      6  C4         5.1120    0.0300    0.2500 C.ar    1  UNL1        0.1029
      7  C5         4.3400    1.1940    0.7490 C.3     1  UNL1        0.1365
      8  O1         2.9610    0.9300    0.5830 O.3     1  UNL1       -0.4547
      9  C6         2.4540    0.6970   -0.6860 C.2     1  UNL1        0.3424
     10  O2         3.2310    0.7260   -1.6860 O.2     1  UNL1       -0.2448
     11  C7         1.0350    0.4260   -0.8260 C.ar    1  UNL1        0.0943
     12  C8         0.2030    0.3730    0.2650 C.ar    1  UNL1       -0.0414
     13  C9        -1.1670    0.1100    0.1600 C.ar    1  UNL1       -0.0406
     14  C10       -2.0010    0.0380    1.3740 C.3     1  UNL1        0.0171
     15  C11       -3.2790   -0.6920    1.1790 C.ar    1  UNL1        0.0736
     16  N3        -3.4200   -1.9810    1.4980 N.ar    1  UNL1       -0.1750
     17  N4        -4.5380   -2.6120    1.2970 N.ar    1  UNL1       -0.2425
     18  C12       -5.6230   -2.0340    0.7630 C.ar    1  UNL1        0.2725
     19  O3        -6.7030   -2.6420    0.5680 O.2     1  UNL1       -0.2658
     20  C13       -5.5260   -0.6980    0.4170 C.ar    1  UNL1        0.0496
     21  C14       -6.6200   -0.0530   -0.1240 C.ar    1  UNL1       -0.0487
     22  C15       -6.5630    1.2780   -0.4690 C.ar    1  UNL1       -0.0610
     23  C16       -5.3940    1.9830   -0.2710 C.ar    1  UNL1       -0.0611
     24  C17       -4.3190    1.3190    0.2690 C.ar    1  UNL1       -0.0521
     25  C18       -4.3520   -0.0170    0.6230 C.ar    1  UNL1        0.0106
     26  C19       -1.6360   -0.0950   -1.1110 C.ar    1  UNL1       -0.0555
     27  C20       -0.8030   -0.0450   -2.2420 C.ar    1  UNL1       -0.0254
     28  C21        0.5340    0.2180   -2.0800 C.ar    1  UNL1        0.1374
     29  F1         1.3330    0.2640   -3.1930 F       1  UNL1       -0.2046
     30 H           8.4504    0.4746    0.5535 H       1  UNL1        0.0279
     31 H           7.2926    1.0483    1.7298 H       1  UNL1        0.0279
     32 H           7.3429    1.7596    0.1346 H       1  UNL1        0.0279
     33 H           7.6555   -1.7994   -0.4863 H       1  UNL1        0.0826
     34 H           5.3857   -2.8328   -1.0217 H       1  UNL1        0.1882
     35 H           4.6083    2.0684    0.1938 H       1  UNL1        0.0765
     36 H           4.5571    1.3581    1.7838 H       1  UNL1        0.0765
     37 H           0.6052    0.5339    1.2017 H       1  UNL1        0.0629
     38 H          -2.2266    1.0356    1.6883 H       1  UNL1        0.0377
     39 H          -1.4402   -0.5044    2.1063 H       1  UNL1        0.0377
     40 H          -4.5907   -3.5621    1.5496 H       1  UNL1        0.1921
     41 H          -7.4959   -0.5781   -0.2723 H       1  UNL1        0.0625
     42 H          -7.3894    1.7456   -0.8732 H       1  UNL1        0.0618
     43 H          -5.3286    2.9820   -0.5216 H       1  UNL1        0.0618
     44 H          -3.4430    1.8439    0.4178 H       1  UNL1        0.0624
     45 H          -2.6400   -0.2939   -1.2430 H       1  UNL1        0.0621
     46 H          -1.1927   -0.2044   -3.1842 H       1  UNL1        0.0646
@<TRIPOS>BOND
     1     1     2    1
     2     2     3   ar
     3     2     6   ar
     4     3     4   ar
     5     4     5   ar
     6     5     6   ar
     7     6     7    1
     8     7     8    1
     9     8     9    1
    10     9    10    2
    11     9    11    1
    12    11    12   ar
    13    11    28   ar
    14    12    13   ar
    15    13    14    1
    16    13    26   ar
    17    14    15    1
    18    15    16   ar
    19    15    25   ar
    20    16    17   ar
    21    17    18   ar
    22    18    19    2
    23    18    20   ar
    24    20    21   ar
    25    20    25   ar
    26    21    22   ar
    27    22    23   ar
    28    23    24   ar
    29    24    25   ar
    30    26    27   ar
    31    27    28   ar
    32    28    29    1
    33     1    30    1
    34     1    31    1
    35     1    32    1
    36     3    33    1
    37     4    34    1
    38     7    35    1
    39     7    36    1
    40    12    37    1
    41    14    38    1
    42    14    39    1
    43    17    40    1
    44    21    41    1
    45    22    42    1
    46    23    43    1
    47    24    44    1
    48    26    45    1
    49    27    46    1
@<TRIPOS>MOLECULE
../data/bude_mols_rdkit_confs2/molecule_75.pdb
 46 49 0 0 0
SMALL
GASTEIGER

@<TRIPOS>ATOM
      1  C1        -6.1240    2.2970    1.4140 C.3     1  UNL1       -0.0364
      2  C2        -5.8060    1.0110    0.7490 C.ar    1  UNL1       -0.0067
      3  C3        -6.6760    0.0800    0.2650 C.ar    1  UNL1        0.0256
      4  N1        -5.9650   -0.9270   -0.2550 N.ar    1  UNL1       -0.2841
      5  N2        -4.6810   -0.6710   -0.1200 N.ar    1  UNL1       -0.1752
      6  C4        -4.5420    0.5140    0.4940 C.ar    1  UNL1        0.1029
      7  C5        -3.2830    1.1950    0.8490 C.3     1  UNL1        0.1365
      8  O1        -2.1370    0.4620    0.4720 O.3     1  UNL1       -0.4547
      9  C6        -1.9560    0.1660   -0.8650 C.2     1  UNL1        0.3424
     10  O2        -2.8190    0.5630   -1.6820 O.2     1  UNL1       -0.2448
     11  C7        -0.8030   -0.5820   -1.3220 C.ar    1  UNL1        0.0943
     12  C8         0.1330   -0.9990   -0.3680 C.ar    1  UNL1       -0.0414
     13  C9         1.2320   -1.7040   -0.7620 C.ar    1  UNL1       -0.0406
     14  C10        2.2610   -2.1560    0.2070 C.3     1  UNL1        0.0171
     15  C11        3.5420   -1.4750    0.0730 C.ar    1  UNL1        0.0736
     16  N3         4.5050   -2.0860   -0.6600 N.ar    1  UNL1       -0.1750
     17  N4         5.6840   -1.5360   -0.8780 N.ar    1  UNL1       -0.2425
     18  C12        6.0270   -0.3320   -0.3950 C.ar    1  UNL1        0.2725
     19  O3         7.1620    0.1750   -0.6180 O.2     1  UNL1       -0.2658
     20  C13        5.0790    0.3400    0.3640 C.ar    1  UNL1        0.0496
     21  C14        5.3810    1.5760    0.8950 C.ar    1  UNL1       -0.0487
     22  C15        4.4650    2.2620    1.6640 C.ar    1  UNL1       -0.0610
     23  C16        3.2250    1.6730    1.8900 C.ar    1  UNL1       -0.0611
     24  C17        2.9110    0.4450    1.3680 C.ar    1  UNL1       -0.0521
     25  C18        3.8330   -0.2410    0.5950 C.ar    1  UNL1        0.0106
     26  C19        1.3800   -1.9860   -2.1270 C.ar    1  UNL1       -0.0555
     27  C20        0.4530   -1.5690   -3.0480 C.ar    1  UNL1       -0.0254
     28  C21       -0.6600   -0.8560   -2.6630 C.ar    1  UNL1        0.1374
     29  F1        -1.5840   -0.4380   -3.5720 F       1  UNL1       -0.2046
     30 H          -7.1858    2.4149    1.4732 H       1  UNL1        0.0279
     31 H          -5.7065    3.1037    0.8485 H       1  UNL1        0.0279
     32 H          -5.7092    2.3006    2.4003 H       1  UNL1        0.0279
     33 H          -7.7058    0.1413    0.2946 H       1  UNL1        0.0826
     34 H          -6.3433   -1.7339   -0.6735 H       1  UNL1        0.1882
     35 H          -3.2612    1.3417    1.9087 H       1  UNL1        0.0765
     36 H          -3.2594    2.1236    0.3180 H       1  UNL1        0.0765
     37 H          -0.0081   -0.7739    0.6292 H       1  UNL1        0.0629
     38 H           2.4207   -3.2042    0.0635 H       1  UNL1        0.0377
     39 H           1.8888   -1.9254    1.1833 H       1  UNL1        0.0377
     40 H           6.3412   -2.0307   -1.4189 H       1  UNL1        0.1921
     41 H           6.3070    1.9942    0.7141 H       1  UNL1        0.0625
     42 H           4.6929    3.1869    2.0610 H       1  UNL1        0.0618
     43 H           2.5264    2.1715    2.4631 H       1  UNL1        0.0618
     44 H           1.9841    0.0301    1.5517 H       1  UNL1        0.0624
     45 H           2.2042   -2.5189   -2.4460 H       1  UNL1        0.0621
     46 H           0.5921   -1.7934   -4.0457 H       1  UNL1        0.0646
@<TRIPOS>BOND
     1     1     2    1
     2     2     3   ar
     3     2     6   ar
     4     3     4   ar
     5     4     5   ar
     6     5     6   ar
     7     6     7    1
     8     7     8    1
     9     8     9    1
    10     9    10    2
    11     9    11    1
    12    11    12   ar
    13    11    28   ar
    14    12    13   ar
    15    13    14    1
    16    13    26   ar
    17    14    15    1
    18    15    16   ar
    19    15    25   ar
    20    16    17   ar
    21    17    18   ar
    22    18    19    2
    23    18    20   ar
    24    20    21   ar
    25    20    25   ar
    26    21    22   ar
    27    22    23   ar
    28    23    24   ar
    29    24    25   ar
    30    26    27   ar
    31    27    28   ar
    32    28    29    1
    33     1    30    1
    34     1    31    1
    35     1    32    1
    36     3    33    1
    37     4    34    1
    38     7    35    1
    39     7    36    1
    40    12    37    1
    41    14    38    1
    42    14    39    1
    43    17    40    1
    44    21    41    1
    45    22    42    1
    46    23    43    1
    47    24    44    1
    48    26    45    1
    49    27    46    1
@<TRIPOS>MOLECULE
../data/bude_mols_rdkit_confs2/molecule_75.pdb
 46 49 0 0 0
SMALL
GASTEIGER

@<TRIPOS>ATOM
      1  C1        -7.1190    1.0590    1.5790 C.3     1  UNL1       -0.0364
      2  C2        -6.3210    0.5570    0.4230 C.ar    1  UNL1       -0.0067
      3  C3        -6.6720    0.5570   -0.9100 C.ar    1  UNL1        0.0256
      4  N1        -5.6310    0.0050   -1.5730 N.ar    1  UNL1       -0.2841
      5  N2        -4.6870   -0.3240   -0.7350 N.ar    1  UNL1       -0.1752
      6  C4        -5.0810    0.0050    0.5230 C.ar    1  UNL1        0.1029
      7  C5        -4.2990   -0.2030    1.7680 C.3     1  UNL1        0.1365
      8  O1        -3.0650   -0.8130    1.3940 O.3     1  UNL1       -0.4547
      9  C6        -2.1730   -0.1840    0.5330 C.2     1  UNL1        0.3424
     10  O2        -2.4630    0.9360    0.0900 O.2     1  UNL1       -0.2448
     11  C7        -0.9170   -0.8150    0.1490 C.ar    1  UNL1        0.0943
     12  C8         0.0070   -0.1910   -0.6520 C.ar    1  UNL1       -0.0414
     13  C9         1.2210   -0.7970   -1.0350 C.ar    1  UNL1       -0.0406
     14  C10        2.1690   -0.0720   -1.9040 C.3     1  UNL1        0.0171
     15  C11        3.1580    0.7510   -1.2130 C.ar    1  UNL1        0.0736
     16  N3         2.8650    2.0640   -0.9470 N.ar    1  UNL1       -0.1750
     17  N4         3.6660    2.8620   -0.2760 N.ar    1  UNL1       -0.2425
     18  C12        4.8500    2.4980    0.2230 C.ar    1  UNL1        0.2725
     19  O3         5.5850    3.2940    0.8600 O.2     1  UNL1       -0.2658
     20  C13        5.2170    1.1780   -0.0090 C.ar    1  UNL1        0.0496
     21  C14        6.4390    0.7500    0.4630 C.ar    1  UNL1       -0.0487
     22  C15        6.8130   -0.5510    0.2130 C.ar    1  UNL1       -0.0610
     23  C16        5.9860   -1.3980   -0.4910 C.ar    1  UNL1       -0.0611
     24  C17        4.7710   -0.9360   -0.9480 C.ar    1  UNL1       -0.0521
     25  C18        4.3730    0.3480   -0.7130 C.ar    1  UNL1        0.0106
     26  C19        1.4230   -2.0520   -0.5580 C.ar    1  UNL1       -0.0555
     27  C20        0.4950   -2.7070    0.2620 C.ar    1  UNL1       -0.0254
     28  C21       -0.6730   -2.0850    0.6120 C.ar    1  UNL1        0.1374
     29  F1        -1.5640   -2.7440    1.4150 F       1  UNL1       -0.2046
     30 H          -8.0541    1.4421    1.2273 H       1  UNL1        0.0279
     31 H          -6.5781    1.8380    2.0744 H       1  UNL1        0.0279
     32 H          -7.2972    0.2570    2.2645 H       1  UNL1        0.0279
     33 H          -7.5520    0.9077   -1.3194 H       1  UNL1        0.0826
     34 H          -5.5912   -0.1293   -2.5475 H       1  UNL1        0.1882
     35 H          -4.8367   -0.8430    2.4360 H       1  UNL1        0.0765
     36 H          -4.1267    0.7271    2.2682 H       1  UNL1        0.0765
     37 H          -0.1959    0.7633   -0.9885 H       1  UNL1        0.0629
     38 H           1.6019    0.5668   -2.5484 H       1  UNL1        0.0377
     39 H           2.7259   -0.8253   -2.4211 H       1  UNL1        0.0377
     40 H           3.3731    3.7908   -0.1317 H       1  UNL1        0.1921
     41 H           7.0568    1.3874    0.9894 H       1  UNL1        0.0625
     42 H           7.7230   -0.8955    0.5568 H       1  UNL1        0.0618
     43 H           6.2743   -2.3717   -0.6749 H       1  UNL1        0.0618
     44 H           4.1523   -1.5709   -1.4763 H       1  UNL1        0.0624
     45 H           2.2951   -2.5431   -0.8096 H       1  UNL1        0.0621
     46 H           0.6925   -3.6608    0.6030 H       1  UNL1        0.0646
@<TRIPOS>BOND
     1     1     2    1
     2     2     3   ar
     3     2     6   ar
     4     3     4   ar
     5     4     5   ar
     6     5     6   ar
     7     6     7    1
     8     7     8    1
     9     8     9    1
    10     9    10    2
    11     9    11    1
    12    11    12   ar
    13    11    28   ar
    14    12    13   ar
    15    13    14    1
    16    13    26   ar
    17    14    15    1
    18    15    16   ar
    19    15    25   ar
    20    16    17   ar
    21    17    18   ar
    22    18    19    2
    23    18    20   ar
    24    20    21   ar
    25    20    25   ar
    26    21    22   ar
    27    22    23   ar
    28    23    24   ar
    29    24    25   ar
    30    26    27   ar
    31    27    28   ar
    32    28    29    1
    33     1    30    1
    34     1    31    1
    35     1    32    1
    36     3    33    1
    37     4    34    1
    38     7    35    1
    39     7    36    1
    40    12    37    1
    41    14    38    1
    42    14    39    1
    43    17    40    1
    44    21    41    1
    45    22    42    1
    46    23    43    1
    47    24    44    1
    48    26    45    1
    49    27    46    1
@<TRIPOS>MOLECULE
../data/bude_mols_rdkit_confs2/molecule_75.pdb
 46 49 0 0 0
SMALL
GASTEIGER

@<TRIPOS>ATOM
      1  C1         7.0190    0.3670    0.6440 C.3     1  UNL1       -0.0364
      2  C2         5.6760    0.9510    0.3890 C.ar    1  UNL1       -0.0067
      3  C3         5.2650    2.2560    0.5420 C.ar    1  UNL1        0.0256
      4  N1         3.9740    2.3130    0.1980 N.ar    1  UNL1       -0.2841
      5  N2         3.5710    1.1100   -0.1590 N.ar    1  UNL1       -0.1752
      6  C4         4.5880    0.2370   -0.0580 C.ar    1  UNL1        0.1029
      7  C5         4.4870   -1.1960   -0.3840 C.3     1  UNL1        0.1365
      8  O1         3.1710   -1.5200   -0.8040 O.3     1  UNL1       -0.4547
      9  C6         2.0620   -1.3400   -0.0090 C.2     1  UNL1        0.3424
     10  O2         2.2090   -0.8690    1.1410 O.2     1  UNL1       -0.2448
     11  C7         0.7490   -1.7010   -0.5230 C.ar    1  UNL1        0.0943
     12  C8        -0.4050   -1.5590    0.2110 C.ar    1  UNL1       -0.0414
     13  C9        -1.6700   -1.9130   -0.2910 C.ar    1  UNL1       -0.0406
     14  C10       -2.7970   -1.7070    0.6610 C.3     1  UNL1        0.0171
     15  C11       -3.1670   -0.2880    0.8450 C.ar    1  UNL1        0.0736
     16  N3        -2.6420    0.4130    1.8980 N.ar    1  UNL1       -0.1750
     17  N4        -2.8590    1.6690    2.1360 N.ar    1  UNL1       -0.2425
     18  C12       -3.6440    2.3860    1.3270 C.ar    1  UNL1        0.2725
     19  O3        -3.8790    3.6190    1.5270 O.2     1  UNL1       -0.2658
     20  C13       -4.2270    1.7620    0.2250 C.ar    1  UNL1        0.0496
     21  C14       -5.0490    2.5300   -0.5900 C.ar    1  UNL1       -0.0487
     22  C15       -5.6330    1.8910   -1.6740 C.ar    1  UNL1       -0.0610
     23  C16       -5.3840    0.5550   -1.8950 C.ar    1  UNL1       -0.0611
     24  C17       -4.5700   -0.2060   -1.0900 C.ar    1  UNL1       -0.0521
     25  C18       -3.9800    0.4180   -0.0060 C.ar    1  UNL1        0.0106
     26  C19       -1.7770   -2.4200   -1.5550 C.ar    1  UNL1       -0.0555
     27  C20       -0.6330   -2.5680   -2.3030 C.ar    1  UNL1       -0.0254
     28  C21        0.5930   -2.2150   -1.7930 C.ar    1  UNL1        0.1374
     29  F1         1.7070   -2.3740   -2.5570 F       1  UNL1       -0.2046
     30 H           7.6829    1.1342    0.9839 H       1  UNL1        0.0279
     31 H           7.4000   -0.0595   -0.2603 H       1  UNL1        0.0279
     32 H           6.9408   -0.3941    1.3920 H       1  UNL1        0.0279
     33 H           5.8467    3.0456    0.8633 H       1  UNL1        0.0826
     34 H           3.4147    3.1231    0.2096 H       1  UNL1        0.1882
     35 H           4.7313   -1.7723    0.4838 H       1  UNL1        0.0765
     36 H           5.1678   -1.4182   -1.1790 H       1  UNL1        0.0765
     37 H          -0.3403   -1.1777    1.1678 H       1  UNL1        0.0629
     38 H          -2.5139   -2.1084    1.6116 H       1  UNL1        0.0377
     39 H          -3.6507   -2.2017    0.2470 H       1  UNL1        0.0377
     40 H          -2.4423    2.0973    2.9184 H       1  UNL1        0.1921
     41 H          -5.2175    3.5299   -0.3979 H       1  UNL1        0.0625
     42 H          -6.2518    2.4150   -2.3124 H       1  UNL1        0.0618
     43 H          -5.8315    0.1015   -2.7069 H       1  UNL1        0.0618
     44 H          -4.4054   -1.2055   -1.2872 H       1  UNL1        0.0624
     45 H          -2.6967   -2.6862   -1.9401 H       1  UNL1        0.0621
     46 H          -0.6959   -2.9492   -3.2600 H       1  UNL1        0.0646
@<TRIPOS>BOND
     1     1     2    1
     2     2     3   ar
     3     2     6   ar
     4     3     4   ar
     5     4     5   ar
     6     5     6   ar
     7     6     7    1
     8     7     8    1
     9     8     9    1
    10     9    10    2
    11     9    11    1
    12    11    12   ar
    13    11    28   ar
    14    12    13   ar
    15    13    14    1
    16    13    26   ar
    17    14    15    1
    18    15    16   ar
    19    15    25   ar
    20    16    17   ar
    21    17    18   ar
    22    18    19    2
    23    18    20   ar
    24    20    21   ar
    25    20    25   ar
    26    21    22   ar
    27    22    23   ar
    28    23    24   ar
    29    24    25   ar
    30    26    27   ar
    31    27    28   ar
    32    28    29    1
    33     1    30    1
    34     1    31    1
    35     1    32    1
    36     3    33    1
    37     4    34    1
    38     7    35    1
    39     7    36    1
    40    12    37    1
    41    14    38    1
    42    14    39    1
    43    17    40    1
    44    21    41    1
    45    22    42    1
    46    23    43    1
    47    24    44    1
    48    26    45    1
    49    27    46    1
@<TRIPOS>MOLECULE
../data/bude_mols_rdkit_confs2/molecule_75.pdb
 46 49 0 0 0
SMALL
GASTEIGER

@<TRIPOS>ATOM
      1  C1         6.5910   -1.2070    1.5790 C.3     1  UNL1       -0.0364
      2  C2         5.4220   -1.7790    0.8870 C.ar    1  UNL1       -0.0067
      3  C3         5.2560   -3.0860    0.4900 C.ar    1  UNL1        0.0256
      4  N1         4.0330   -3.1800   -0.1110 N.ar    1  UNL1       -0.2841
      5  N2         3.4730   -1.9910   -0.0860 N.ar    1  UNL1       -0.1752
      6  C4         4.2940   -1.0980    0.5200 C.ar    1  UNL1        0.1029
      7  C5         3.9470    0.3330    0.7020 C.3     1  UNL1        0.1365
      8  O1         2.6780    0.6350    0.1770 O.3     1  UNL1       -0.4547
      9  C6         2.1650    1.9150    0.2440 C.2     1  UNL1        0.3424
     10  O2         2.8490    2.8100    0.7810 O.2     1  UNL1       -0.2448
     11  C7         0.8440    2.2460   -0.2980 C.ar    1  UNL1        0.0943
     12  C8         0.0540    1.2910   -0.8990 C.ar    1  UNL1       -0.0414
     13  C9        -1.2160    1.5720   -1.4290 C.ar    1  UNL1       -0.0406
     14  C10       -2.0010    0.5200   -2.0810 C.3     1  UNL1        0.0171
     15  C11       -2.5850   -0.4880   -1.1760 C.ar    1  UNL1        0.0736
     16  N3        -1.9190   -1.6660   -0.9490 N.ar    1  UNL1       -0.1750
     17  N4        -2.3540   -2.5900   -0.1230 N.ar    1  UNL1       -0.2425
     18  C12       -3.4910   -2.4510    0.5670 C.ar    1  UNL1        0.2725
     19  O3        -3.8950   -3.3670    1.3690 O.2     1  UNL1       -0.2658
     20  C13       -4.2340   -1.3000    0.4070 C.ar    1  UNL1        0.0496
     21  C14       -5.4130   -1.1470    1.0990 C.ar    1  UNL1       -0.0487
     22  C15       -6.1390   -0.0000    0.9080 C.ar    1  UNL1       -0.0610
     23  C16       -5.6830    0.9580    0.0440 C.ar    1  UNL1       -0.0611
     24  C17       -4.5150    0.7970   -0.6350 C.ar    1  UNL1       -0.0521
     25  C18       -3.7520   -0.3300   -0.4780 C.ar    1  UNL1        0.0106
     26  C19       -1.6290    2.8670   -1.3120 C.ar    1  UNL1       -0.0555
     27  C20       -0.8680    3.8570   -0.7160 C.ar    1  UNL1       -0.0254
     28  C21        0.3680    3.5380   -0.2120 C.ar    1  UNL1        0.1374
     29  F1         1.1500    4.4970    0.3870 F       1  UNL1       -0.2046
     30 H           7.3215   -1.9726    1.7375 H       1  UNL1        0.0279
     31 H           6.2855   -0.8047    2.5223 H       1  UNL1        0.0279
     32 H           7.0146   -0.4284    0.9796 H       1  UNL1        0.0279
     33 H           5.9319   -3.8546    0.6222 H       1  UNL1        0.0826
     34 H           3.6394   -3.9962   -0.4959 H       1  UNL1        0.1882
     35 H           4.6795    0.9328    0.2034 H       1  UNL1        0.0765
     36 H           3.9296    0.5394    1.7518 H       1  UNL1        0.0765
     37 H           0.4115    0.3250   -0.9628 H       1  UNL1        0.0629
     38 H          -1.3617    0.0118   -2.7723 H       1  UNL1        0.0377
     39 H          -2.8290    1.0148   -2.5441 H       1  UNL1        0.0377
     40 H          -1.8252   -3.4125   -0.0080 H       1  UNL1        0.1921
     41 H          -5.7434   -1.8790    1.7471 H       1  UNL1        0.0625
     42 H          -7.0271    0.1406    1.4145 H       1  UNL1        0.0618
     43 H          -6.2352    1.8186   -0.0952 H       1  UNL1        0.0618
     44 H          -4.1980    1.5375   -1.2802 H       1  UNL1        0.0624
     45 H          -2.5562    3.1211   -1.6871 H       1  UNL1        0.0621
     46 H          -1.2253    4.8230   -0.6513 H       1  UNL1        0.0646
@<TRIPOS>BOND
     1     1     2    1
     2     2     3   ar
     3     2     6   ar
     4     3     4   ar
     5     4     5   ar
     6     5     6   ar
     7     6     7    1
     8     7     8    1
     9     8     9    1
    10     9    10    2
    11     9    11    1
    12    11    12   ar
    13    11    28   ar
    14    12    13   ar
    15    13    14    1
    16    13    26   ar
    17    14    15    1
    18    15    16   ar
    19    15    25   ar
    20    16    17   ar
    21    17    18   ar
    22    18    19    2
    23    18    20   ar
    24    20    21   ar
    25    20    25   ar
    26    21    22   ar
    27    22    23   ar
    28    23    24   ar
    29    24    25   ar
    30    26    27   ar
    31    27    28   ar
    32    28    29    1
    33     1    30    1
    34     1    31    1
    35     1    32    1
    36     3    33    1
    37     4    34    1
    38     7    35    1
    39     7    36    1
    40    12    37    1
    41    14    38    1
    42    14    39    1
    43    17    40    1
    44    21    41    1
    45    22    42    1
    46    23    43    1
    47    24    44    1
    48    26    45    1
    49    27    46    1
@<TRIPOS>MOLECULE
../data/bude_mols_rdkit_confs2/molecule_75.pdb
 46 49 0 0 0
SMALL
GASTEIGER

@<TRIPOS>ATOM
      1  C1         6.7150    1.7840   -1.4200 C.3     1  UNL1       -0.0364
      2  C2         6.1710    0.7960   -0.4500 C.ar    1  UNL1       -0.0067
      3  C3         6.9100   -0.0310    0.3630 C.ar    1  UNL1        0.0256
      4  N1         6.0340   -0.7580    1.0710 N.ar    1  UNL1       -0.2841
      5  N2         4.7950   -0.4140    0.7290 N.ar    1  UNL1       -0.1752
      6  C4         4.8600    0.5420   -0.2060 C.ar    1  UNL1        0.1029
      7  C5         3.7250    1.2300   -0.8800 C.3     1  UNL1        0.1365
      8  O1         2.4820    0.7130   -0.3950 O.3     1  UNL1       -0.4547
      9  C6         2.1380   -0.6040   -0.5200 C.2     1  UNL1        0.3424
     10  O2         2.9410   -1.3940   -1.0840 O.2     1  UNL1       -0.2448
     11  C7         0.8540   -1.1270   -0.0130 C.ar    1  UNL1        0.0943
     12  C8        -0.0580   -0.3220    0.6110 C.ar    1  UNL1       -0.0414
     13  C9        -1.2830   -0.7960    1.1100 C.ar    1  UNL1       -0.0406
     14  C10       -2.2000    0.1920    1.7820 C.3     1  UNL1        0.0171
     15  C11       -3.0520    0.8300    0.7800 C.ar    1  UNL1        0.0736
     16  N3        -2.6210    1.9820    0.1640 N.ar    1  UNL1       -0.1750
     17  N4        -3.3040    2.5550   -0.7950 N.ar    1  UNL1       -0.2425
     18  C12       -4.4630    2.0540   -1.2340 C.ar    1  UNL1        0.2725
     19  O3        -5.1130    2.6100   -2.1580 O.2     1  UNL1       -0.2658
     20  C13       -4.9790    0.8950   -0.6710 C.ar    1  UNL1        0.0496
     21  C14       -6.1760    0.3840   -1.0960 C.ar    1  UNL1       -0.0487
     22  C15       -6.6400   -0.7530   -0.4760 C.ar    1  UNL1       -0.0610
     23  C16       -5.9310   -1.3580    0.5340 C.ar    1  UNL1       -0.0611
     24  C17       -4.7310   -0.8300    0.9470 C.ar    1  UNL1       -0.0521
     25  C18       -4.2300    0.3000    0.3560 C.ar    1  UNL1        0.0106
     26  C19       -1.5430   -2.1230    0.9480 C.ar    1  UNL1       -0.0555
     27  C20       -0.6210   -2.9710    0.3090 C.ar    1  UNL1       -0.0254
     28  C21        0.5670   -2.4600   -0.1630 C.ar    1  UNL1        0.1374
     29  F1         1.4750   -3.2530   -0.7860 F       1  UNL1       -0.2046
     30 H           7.7844    1.7601   -1.3916 H       1  UNL1        0.0279
     31 H           6.3731    2.7641   -1.1604 H       1  UNL1        0.0279
     32 H           6.3788    1.5384   -2.4057 H       1  UNL1        0.0279
     33 H           7.9393   -0.0821    0.4175 H       1  UNL1        0.0826
     34 H           6.2707   -1.4404    1.7400 H       1  UNL1        0.1882
     35 H           3.7886    1.0675   -1.9357 H       1  UNL1        0.0765
     36 H           3.7752    2.2781   -0.6706 H       1  UNL1        0.0765
     37 H           0.1635    0.6800    0.7206 H       1  UNL1        0.0629
     38 H          -1.6164    0.9377    2.2802 H       1  UNL1        0.0377
     39 H          -2.8120   -0.3194    2.4953 H       1  UNL1        0.0377
     40 H          -2.9537    3.3788   -1.2047 H       1  UNL1        0.1921
     41 H          -6.7110    0.8356   -1.8542 H       1  UNL1        0.0625
     42 H          -7.5396   -1.1603   -0.7757 H       1  UNL1        0.0618
     43 H          -6.3003   -2.2105    0.9833 H       1  UNL1        0.0618
     44 H          -4.2040   -1.2877    1.7071 H       1  UNL1        0.0624
     45 H          -2.4314   -2.5127    1.3000 H       1  UNL1        0.0621
     46 H          -0.8344   -3.9741    0.1941 H       1  UNL1        0.0646
@<TRIPOS>BOND
     1     1     2    1
     2     2     3   ar
     3     2     6   ar
     4     3     4   ar
     5     4     5   ar
     6     5     6   ar
     7     6     7    1
     8     7     8    1
     9     8     9    1
    10     9    10    2
    11     9    11    1
    12    11    12   ar
    13    11    28   ar
    14    12    13   ar
    15    13    14    1
    16    13    26   ar
    17    14    15    1
    18    15    16   ar
    19    15    25   ar
    20    16    17   ar
    21    17    18   ar
    22    18    19    2
    23    18    20   ar
    24    20    21   ar
    25    20    25   ar
    26    21    22   ar
    27    22    23   ar
    28    23    24   ar
    29    24    25   ar
    30    26    27   ar
    31    27    28   ar
    32    28    29    1
    33     1    30    1
    34     1    31    1
    35     1    32    1
    36     3    33    1
    37     4    34    1
    38     7    35    1
    39     7    36    1
    40    12    37    1
    41    14    38    1
    42    14    39    1
    43    17    40    1
    44    21    41    1
    45    22    42    1
    46    23    43    1
    47    24    44    1
    48    26    45    1
    49    27    46    1
@<TRIPOS>MOLECULE
../data/bude_mols_rdkit_confs2/molecule_75.pdb
 46 49 0 0 0
SMALL
GASTEIGER

@<TRIPOS>ATOM
      1  C1         6.5840   -2.4730    0.8400 C.3     1  UNL1       -0.0364
      2  C2         6.1530   -1.1010    0.4520 C.ar    1  UNL1       -0.0067
      3  C3         7.0130   -0.0880    0.1520 C.ar    1  UNL1        0.0256
      4  N1         6.2820    0.9990   -0.1520 N.ar    1  UNL1       -0.2841
      5  N2         5.0100    0.6690   -0.0430 N.ar    1  UNL1       -0.1752
      6  C4         4.8730   -0.6300    0.3310 C.ar    1  UNL1        0.1029
      7  C5         3.6480   -1.4150    0.5700 C.3     1  UNL1        0.1365
      8  O1         2.4620   -0.6720    0.3670 O.3     1  UNL1       -0.4547
      9  C6         2.1190   -0.0800   -0.8290 C.2     1  UNL1        0.3424
     10  O2         2.9070   -0.2090   -1.7990 O.2     1  UNL1       -0.2448
     11  C7         0.8930    0.6860   -1.0240 C.ar    1  UNL1        0.0943
     12  C8        -0.0610    0.8370   -0.0600 C.ar    1  UNL1       -0.0414
     13  C9        -1.2460    1.5740   -0.2280 C.ar    1  UNL1       -0.0406
     14  C10       -2.2120    1.6970    0.8890 C.3     1  UNL1        0.0171
     15  C11       -3.0650    0.5300    1.1080 C.ar    1  UNL1        0.0736
     16  N3        -2.7030   -0.4590    1.9880 N.ar    1  UNL1       -0.1750
     17  N4        -3.4230   -1.5560    2.1660 N.ar    1  UNL1       -0.2425
     18  C12       -4.5560   -1.7710    1.4940 C.ar    1  UNL1        0.2725
     19  O3        -5.2180   -2.8120    1.6770 O.2     1  UNL1       -0.2658
     20  C13       -4.9940   -0.8390    0.5970 C.ar    1  UNL1        0.0496
     21  C14       -6.1750   -1.0220   -0.1010 C.ar    1  UNL1       -0.0487
     22  C15       -6.6580   -0.0980   -0.9950 C.ar    1  UNL1       -0.0610
     23  C16       -5.9000    1.0460   -1.1710 C.ar    1  UNL1       -0.0611
     24  C17       -4.7210    1.2190   -0.4690 C.ar    1  UNL1       -0.0521
     25  C18       -4.2270    0.3160    0.4170 C.ar    1  UNL1        0.0106
     26  C19       -1.4630    2.1790   -1.4290 C.ar    1  UNL1       -0.0555
     27  C20       -0.5010    2.0400   -2.4390 C.ar    1  UNL1       -0.0254
     28  C21        0.6520    1.3090   -2.2370 C.ar    1  UNL1        0.1374
     29  F1         1.5900    1.1720   -3.2180 F       1  UNL1       -0.2046
     30 H           7.6528   -2.5236    0.8430 H       1  UNL1        0.0279
     31 H           6.1954   -3.1808    0.1380 H       1  UNL1        0.0279
     32 H           6.2135   -2.7001    1.8178 H       1  UNL1        0.0279
     33 H           8.0434   -0.1448    0.1571 H       1  UNL1        0.0826
     34 H           6.6332    1.8819   -0.4095 H       1  UNL1        0.1882
     35 H           3.6607   -1.7659    1.5807 H       1  UNL1        0.0765
     36 H           3.6435   -2.2201   -0.1348 H       1  UNL1        0.0765
     37 H           0.0979    0.3803    0.8517 H       1  UNL1        0.0629
     38 H          -2.8448    2.5361    0.6880 H       1  UNL1        0.0377
     39 H          -1.6254    1.8058    1.7772 H       1  UNL1        0.0377
     40 H          -3.1140   -2.2317    2.8119 H       1  UNL1        0.1921
     41 H          -6.7144   -1.8876    0.0566 H       1  UNL1        0.0625
     42 H          -7.5402   -0.2491   -1.5087 H       1  UNL1        0.0618
     43 H          -6.2162    1.7745   -1.8300 H       1  UNL1        0.0618
     44 H          -4.1845    2.0862   -0.6279 H       1  UNL1        0.0624
     45 H          -2.3203    2.7298   -1.5924 H       1  UNL1        0.0621
     46 H          -0.6582    2.4937   -3.3525 H       1  UNL1        0.0646
@<TRIPOS>BOND
     1     1     2    1
     2     2     3   ar
     3     2     6   ar
     4     3     4   ar
     5     4     5   ar
     6     5     6   ar
     7     6     7    1
     8     7     8    1
     9     8     9    1
    10     9    10    2
    11     9    11    1
    12    11    12   ar
    13    11    28   ar
    14    12    13   ar
    15    13    14    1
    16    13    26   ar
    17    14    15    1
    18    15    16   ar
    19    15    25   ar
    20    16    17   ar
    21    17    18   ar
    22    18    19    2
    23    18    20   ar
    24    20    21   ar
    25    20    25   ar
    26    21    22   ar
    27    22    23   ar
    28    23    24   ar
    29    24    25   ar
    30    26    27   ar
    31    27    28   ar
    32    28    29    1
    33     1    30    1
    34     1    31    1
    35     1    32    1
    36     3    33    1
    37     4    34    1
    38     7    35    1
    39     7    36    1
    40    12    37    1
    41    14    38    1
    42    14    39    1
    43    17    40    1
    44    21    41    1
    45    22    42    1
    46    23    43    1
    47    24    44    1
    48    26    45    1
    49    27    46    1
@<TRIPOS>MOLECULE
../data/bude_mols_rdkit_confs2/molecule_75.pdb
 46 49 0 0 0
SMALL
GASTEIGER

@<TRIPOS>ATOM
      1  C1         6.9160    0.6860   -1.9960 C.3     1  UNL1       -0.0364
      2  C2         6.1460   -0.1470   -1.0290 C.ar    1  UNL1       -0.0067
      3  C3         6.4130   -1.4500   -0.6550 C.ar    1  UNL1        0.0256
      4  N1         5.4600   -1.8060    0.2400 N.ar    1  UNL1       -0.2841
      5  N2         4.6430   -0.7680    0.4090 N.ar    1  UNL1       -0.1752
      6  C4         5.0230    0.2580   -0.3410 C.ar    1  UNL1        0.1029
      7  C5         4.4180    1.6010   -0.4720 C.3     1  UNL1        0.1365
      8  O1         3.2740    1.7530    0.3460 O.3     1  UNL1       -0.4547
      9  C6         2.1910    0.9150    0.1600 C.2     1  UNL1        0.3424
     10  O2         2.2770    0.0440   -0.7430 O.2     1  UNL1       -0.2448
     11  C7         0.9730    1.0300    0.9850 C.ar    1  UNL1        0.0943
     12  C8        -0.0880    0.1820    0.7760 C.ar    1  UNL1       -0.0414
     13  C9        -1.2520    0.2490    1.5230 C.ar    1  UNL1       -0.0406
     14  C10       -2.3400   -0.7160    1.2140 C.3     1  UNL1        0.0171
     15  C11       -3.2490   -0.1740    0.2050 C.ar    1  UNL1        0.0736
     16  N3        -3.0400    1.0440   -0.3100 N.ar    1  UNL1       -0.1750
     17  N4        -3.8500    1.5630   -1.2290 N.ar    1  UNL1       -0.2425
     18  C12       -4.9090    0.8790   -1.6710 C.ar    1  UNL1        0.2725
     19  O3        -5.6560    1.3830   -2.5320 O.2     1  UNL1       -0.2658
     20  C13       -5.1920   -0.3760   -1.1930 C.ar    1  UNL1        0.0496
     21  C14       -6.2700   -1.1090   -1.6240 C.ar    1  UNL1       -0.0487
     22  C15       -6.5010   -2.3610   -1.1070 C.ar    1  UNL1       -0.0610
     23  C16       -5.6630   -2.8830   -0.1650 C.ar    1  UNL1       -0.0611
     24  C17       -4.5930   -2.1580    0.2630 C.ar    1  UNL1       -0.0521
     25  C18       -4.3290   -0.8970   -0.2330 C.ar    1  UNL1        0.0106
     26  C19       -1.3640    1.1890    2.5080 C.ar    1  UNL1       -0.0555
     27  C20       -0.3230    2.0500    2.7430 C.ar    1  UNL1       -0.0254
     28  C21        0.8490    1.9730    1.9810 C.ar    1  UNL1        0.1374
     29  F1         1.8860    2.8110    2.1950 F       1  UNL1       -0.2046
     30 H           7.7385    0.1190   -2.3793 H       1  UNL1        0.0279
     31 H           7.2852    1.5591   -1.4997 H       1  UNL1        0.0279
     32 H           6.2771    0.9779   -2.8031 H       1  UNL1        0.0279
     33 H           7.1898   -2.0395   -0.9928 H       1  UNL1        0.0826
     34 H           5.3847   -2.6797    0.6874 H       1  UNL1        0.1882
     35 H           4.1348    1.7535   -1.4925 H       1  UNL1        0.0765
     36 H           5.1446    2.3210   -0.1582 H       1  UNL1        0.0765
     37 H          -0.0145   -0.5318    0.0343 H       1  UNL1        0.0629
     38 H          -2.8911   -0.9203    2.1081 H       1  UNL1        0.0377
     39 H          -1.9014   -1.6138    0.8312 H       1  UNL1        0.0377
     40 H          -3.6669    2.4615   -1.5874 H       1  UNL1        0.1921
     41 H          -6.9070   -0.7195   -2.3365 H       1  UNL1        0.0625
     42 H          -7.3123   -2.9093   -1.4328 H       1  UNL1        0.0618
     43 H          -5.8396   -3.8235    0.2214 H       1  UNL1        0.0618
     44 H          -3.9642   -2.5608    0.9753 H       1  UNL1        0.0624
     45 H          -2.2264    1.2507    3.0715 H       1  UNL1        0.0621
     46 H          -0.4040    2.7603    3.4873 H       1  UNL1        0.0646
@<TRIPOS>BOND
     1     1     2    1
     2     2     3   ar
     3     2     6   ar
     4     3     4   ar
     5     4     5   ar
     6     5     6   ar
     7     6     7    1
     8     7     8    1
     9     8     9    1
    10     9    10    2
    11     9    11    1
    12    11    12   ar
    13    11    28   ar
    14    12    13   ar
    15    13    14    1
    16    13    26   ar
    17    14    15    1
    18    15    16   ar
    19    15    25   ar
    20    16    17   ar
    21    17    18   ar
    22    18    19    2
    23    18    20   ar
    24    20    21   ar
    25    20    25   ar
    26    21    22   ar
    27    22    23   ar
    28    23    24   ar
    29    24    25   ar
    30    26    27   ar
    31    27    28   ar
    32    28    29    1
    33     1    30    1
    34     1    31    1
    35     1    32    1
    36     3    33    1
    37     4    34    1
    38     7    35    1
    39     7    36    1
    40    12    37    1
    41    14    38    1
    42    14    39    1
    43    17    40    1
    44    21    41    1
    45    22    42    1
    46    23    43    1
    47    24    44    1
    48    26    45    1
    49    27    46    1
@<TRIPOS>MOLECULE
../data/bude_mols_rdkit_confs2/molecule_75.pdb
 46 49 0 0 0
SMALL
GASTEIGER

@<TRIPOS>ATOM
      1  C1         5.6420   -1.8360    0.8190 C.3     1  UNL1       -0.0364
      2  C2         6.4860   -0.6180    0.5730 C.ar    1  UNL1       -0.0067
      3  C3         7.6000   -0.1510    1.1160 C.ar    1  UNL1        0.0256
      4  N1         7.7890    1.0930    0.5970 N.ar    1  UNL1       -0.2841
      5  N2         6.7920    1.3690   -0.2530 N.ar    1  UNL1       -0.1752
      6  C4         5.9470    0.3810   -0.3370 C.ar    1  UNL1        0.1029
      7  C5         4.8090   -0.0820   -1.1150 C.3     1  UNL1        0.1365
      8  O1         3.5780    0.6570   -0.9930 O.3     1  UNL1       -0.4547
      9  C6         2.4570   -0.1370   -1.3760 C.2     1  UNL1        0.3424
     10  O2         2.7290   -1.3070   -1.8020 O.2     1  UNL1       -0.2448
     11  C7         1.0780    0.3000   -1.2830 C.ar    1  UNL1        0.0943
     12  C8         0.0640   -0.5180   -0.8140 C.ar    1  UNL1       -0.0414
     13  C9        -1.2700   -0.0890   -0.7040 C.ar    1  UNL1       -0.0406
     14  C10       -2.2520   -1.1000   -0.2800 C.3     1  UNL1        0.0171
     15  C11       -3.6380   -0.6590   -0.3680 C.ar    1  UNL1        0.0736
     16  N3        -4.0640   -0.0460   -1.5200 N.ar    1  UNL1       -0.1750
     17  N4        -5.2640    0.4400   -1.6070 N.ar    1  UNL1       -0.2425
     18  C12       -6.1760    0.3950   -0.6230 C.ar    1  UNL1        0.2725
     19  O3        -7.3080    0.8570   -0.7180 O.2     1  UNL1       -0.2658
     20  C13       -5.8220   -0.2160    0.5800 C.ar    1  UNL1        0.0496
     21  C14       -6.7340   -0.3180    1.6190 C.ar    1  UNL1       -0.0487
     22  C15       -6.3660   -0.9620    2.7780 C.ar    1  UNL1       -0.0610
     23  C16       -5.0820   -1.5020    2.8850 C.ar    1  UNL1       -0.0611
     24  C17       -4.1900   -1.3840    1.8550 C.ar    1  UNL1       -0.0521
     25  C18       -4.5150   -0.7440    0.6740 C.ar    1  UNL1        0.0106
     26  C19       -1.5170    1.1760   -1.0790 C.ar    1  UNL1       -0.0555
     27  C20       -0.5350    2.0700   -1.5610 C.ar    1  UNL1       -0.0254
     28  C21        0.7210    1.5950   -1.6420 C.ar    1  UNL1        0.1374
     29  F1         1.7630    2.3680   -2.1140 F       1  UNL1       -0.2046
     30 H           6.1468   -2.4879    1.5009 H       1  UNL1        0.0279
     31 H           5.4754   -2.3472   -0.1061 H       1  UNL1        0.0279
     32 H           4.7026   -1.5404    1.2374 H       1  UNL1        0.0279
     33 H           8.2051   -0.6347    1.7978 H       1  UNL1        0.0826
     34 H           8.5388    1.6937    0.8122 H       1  UNL1        0.1882
     35 H           4.6082   -1.0910   -0.8208 H       1  UNL1        0.0765
     36 H           5.1049    0.0454   -2.1354 H       1  UNL1        0.0765
     37 H           0.2975   -1.4833   -0.5334 H       1  UNL1        0.0629
     38 H          -2.0468   -1.3615    0.7371 H       1  UNL1        0.0377
     39 H          -2.1495   -1.9285   -0.9493 H       1  UNL1        0.0377
     40 H          -5.5235    0.8715   -2.4530 H       1  UNL1        0.1921
     41 H          -7.6793    0.0850    1.5242 H       1  UNL1        0.0625
     42 H          -7.0327   -1.0454    3.5613 H       1  UNL1        0.0618
     43 H          -4.8042   -1.9941    3.7485 H       1  UNL1        0.0618
     44 H          -3.2453   -1.7852    1.9630 H       1  UNL1        0.0624
     45 H          -2.4883    1.5180   -1.0107 H       1  UNL1        0.0621
     46 H          -0.7689    3.0367   -1.8365 H       1  UNL1        0.0646
@<TRIPOS>BOND
     1     1     2    1
     2     2     3   ar
     3     2     6   ar
     4     3     4   ar
     5     4     5   ar
     6     5     6   ar
     7     6     7    1
     8     7     8    1
     9     8     9    1
    10     9    10    2
    11     9    11    1
    12    11    12   ar
    13    11    28   ar
    14    12    13   ar
    15    13    14    1
    16    13    26   ar
    17    14    15    1
    18    15    16   ar
    19    15    25   ar
    20    16    17   ar
    21    17    18   ar
    22    18    19    2
    23    18    20   ar
    24    20    21   ar
    25    20    25   ar
    26    21    22   ar
    27    22    23   ar
    28    23    24   ar
    29    24    25   ar
    30    26    27   ar
    31    27    28   ar
    32    28    29    1
    33     1    30    1
    34     1    31    1
    35     1    32    1
    36     3    33    1
    37     4    34    1
    38     7    35    1
    39     7    36    1
    40    12    37    1
    41    14    38    1
    42    14    39    1
    43    17    40    1
    44    21    41    1
    45    22    42    1
    46    23    43    1
    47    24    44    1
    48    26    45    1
    49    27    46    1
@<TRIPOS>MOLECULE
../data/bude_mols_rdkit_confs2/molecule_75.pdb
 46 49 0 0 0
SMALL
GASTEIGER

@<TRIPOS>ATOM
      1  C1         7.3010    0.3940    0.1780 C.3     1  UNL1       -0.0364
      2  C2         6.0210    1.1130    0.4740 C.ar    1  UNL1       -0.0067
      3  C3         5.8450    2.4340    0.7950 C.ar    1  UNL1        0.0256
      4  N1         4.5260    2.6120    0.9710 N.ar    1  UNL1       -0.2841
      5  N2         3.9150    1.4800    0.7750 N.ar    1  UNL1       -0.1752
      6  C4         4.7850    0.5050    0.4630 C.ar    1  UNL1        0.1029
      7  C5         4.5430   -0.9230    0.1650 C.3     1  UNL1        0.1365
      8  O1         3.2090   -1.3110    0.2100 O.3     1  UNL1       -0.4547
      9  C6         2.1770   -0.8210   -0.5650 C.2     1  UNL1        0.3424
     10  O2         2.4560    0.0680   -1.4000 O.2     1  UNL1       -0.2448
     11  C7         0.8140   -1.3510   -0.3880 C.ar    1  UNL1        0.0943
     12  C8        -0.2410   -0.9770   -1.1630 C.ar    1  UNL1       -0.0414
     13  C9        -1.5310   -1.5270   -0.9720 C.ar    1  UNL1       -0.0406
     14  C10       -2.6090   -1.0370   -1.9100 C.3     1  UNL1        0.0171
     15  C11       -3.1930    0.1980   -1.3870 C.ar    1  UNL1        0.0736
     16  N3        -2.6110    1.3850   -1.7490 N.ar    1  UNL1       -0.1750
     17  N4        -3.0210    2.5320   -1.2570 N.ar    1  UNL1       -0.2425
     18  C12       -4.0270    2.6090   -0.3810 C.ar    1  UNL1        0.2725
     19  O3        -4.4390    3.6880    0.1050 O.2     1  UNL1       -0.2658
     20  C13       -4.6450    1.4200    0.0090 C.ar    1  UNL1        0.0496
     21  C14       -5.6900    1.4590    0.8850 C.ar    1  UNL1       -0.0487
     22  C15       -6.3520    0.3100    1.2840 C.ar    1  UNL1       -0.0610
     23  C16       -5.9190   -0.9040    0.7610 C.ar    1  UNL1       -0.0611
     24  C17       -4.8640   -0.9900   -0.1280 C.ar    1  UNL1       -0.0521
     25  C18       -4.2340    0.1890   -0.4930 C.ar    1  UNL1        0.0106
     26  C19       -1.7110   -2.4500    0.0120 C.ar    1  UNL1       -0.0555
     27  C20       -0.6540   -2.8450    0.8130 C.ar    1  UNL1       -0.0254
     28  C21        0.5740   -2.2840    0.5880 C.ar    1  UNL1        0.1374
     29  F1         1.6360   -2.6580    1.3700 F       1  UNL1       -0.2046
     30 H           8.1197    1.0791    0.2497 H       1  UNL1        0.0279
     31 H           7.2614   -0.0122   -0.8111 H       1  UNL1        0.0279
     32 H           7.4364   -0.3986    0.8840 H       1  UNL1        0.0279
     33 H           6.5819    3.1510    0.8839 H       1  UNL1        0.0826
     34 H           4.0910    3.4623    1.2099 H       1  UNL1        0.1882
     35 H           5.0839   -1.5081    0.8791 H       1  UNL1        0.0765
     36 H           4.8678   -1.0792   -0.8425 H       1  UNL1        0.0765
     37 H          -0.0968   -0.2763   -1.9068 H       1  UNL1        0.0629
     38 H          -3.3716   -1.7826   -1.9960 H       1  UNL1        0.0377
     39 H          -2.1820   -0.8474   -2.8726 H       1  UNL1        0.0377
     40 H          -2.5730    3.3608   -1.5427 H       1  UNL1        0.1921
     41 H          -5.9957    2.3702    1.2608 H       1  UNL1        0.0625
     42 H          -7.1410    0.3530    1.9478 H       1  UNL1        0.0618
     43 H          -6.4020   -1.7702    1.0465 H       1  UNL1        0.0618
     44 H          -4.5566   -1.8996   -0.5063 H       1  UNL1        0.0624
     45 H          -2.6461   -2.8598    0.1624 H       1  UNL1        0.0621
     46 H          -0.7881   -3.5441    1.5602 H       1  UNL1        0.0646
@<TRIPOS>BOND
     1     1     2    1
     2     2     3   ar
     3     2     6   ar
     4     3     4   ar
     5     4     5   ar
     6     5     6   ar
     7     6     7    1
     8     7     8    1
     9     8     9    1
    10     9    10    2
    11     9    11    1
    12    11    12   ar
    13    11    28   ar
    14    12    13   ar
    15    13    14    1
    16    13    26   ar
    17    14    15    1
    18    15    16   ar
    19    15    25   ar
    20    16    17   ar
    21    17    18   ar
    22    18    19    2
    23    18    20   ar
    24    20    21   ar
    25    20    25   ar
    26    21    22   ar
    27    22    23   ar
    28    23    24   ar
    29    24    25   ar
    30    26    27   ar
    31    27    28   ar
    32    28    29    1
    33     1    30    1
    34     1    31    1
    35     1    32    1
    36     3    33    1
    37     4    34    1
    38     7    35    1
    39     7    36    1
    40    12    37    1
    41    14    38    1
    42    14    39    1
    43    17    40    1
    44    21    41    1
    45    22    42    1
    46    23    43    1
    47    24    44    1
    48    26    45    1
    49    27    46    1
@<TRIPOS>MOLECULE
../data/bude_mols_rdkit_confs2/molecule_75.pdb
 46 49 0 0 0
SMALL
GASTEIGER

@<TRIPOS>ATOM
      1  C1         7.1030    1.6880    0.5280 C.3     1  UNL1       -0.0364
      2  C2         6.4660    1.1130   -0.6810 C.ar    1  UNL1       -0.0067
      3  C3         7.0080    0.9750   -1.9250 C.ar    1  UNL1        0.0256
      4  N1         6.0880    0.4040   -2.7210 N.ar    1  UNL1       -0.2841
      5  N2         4.9960    0.1840   -2.0130 N.ar    1  UNL1       -0.1752
      6  C4         5.1790    0.6050   -0.7460 C.ar    1  UNL1        0.1029
      7  C5         4.2180    0.5550    0.3980 C.3     1  UNL1        0.1365
      8  O1         3.0250   -0.0280   -0.0510 O.3     1  UNL1       -0.4547
      9  C6         1.9090   -0.2440    0.7150 C.2     1  UNL1        0.3424
     10  O2         1.9350    0.1020    1.9120 O.2     1  UNL1       -0.2448
     11  C7         0.7490   -0.8670    0.0870 C.ar    1  UNL1        0.0943
     12  C8        -0.3920   -1.1230    0.8080 C.ar    1  UNL1       -0.0414
     13  C9        -1.5320   -1.7280    0.2520 C.ar    1  UNL1       -0.0406
     14  C10       -2.7150   -1.9860    1.1240 C.3     1  UNL1        0.0171
     15  C11       -3.5000   -0.7830    1.3880 C.ar    1  UNL1        0.0736
     16  N3        -3.2100   -0.0920    2.5280 N.ar    1  UNL1       -0.1750
     17  N4        -3.7700    1.0220    2.8930 N.ar    1  UNL1       -0.2425
     18  C12       -4.7090    1.5920    2.1400 C.ar    1  UNL1        0.2725
     19  O3        -5.2740    2.6760    2.4620 O.2     1  UNL1       -0.2658
     20  C13       -5.0750    0.9610    0.9570 C.ar    1  UNL1        0.0496
     21  C14       -6.0440    1.4770    0.1370 C.ar    1  UNL1       -0.0487
     22  C15       -6.4280    0.8410   -1.0470 C.ar    1  UNL1       -0.0610
     23  C16       -5.7840   -0.3420   -1.3590 C.ar    1  UNL1       -0.0611
     24  C17       -4.8190   -0.8710   -0.5580 C.ar    1  UNL1       -0.0521
     25  C18       -4.4660   -0.2290    0.5860 C.ar    1  UNL1        0.0106
     26  C19       -1.5090   -2.0800   -1.0690 C.ar    1  UNL1       -0.0555
     27  C20       -0.3510   -1.8240   -1.8150 C.ar    1  UNL1       -0.0254
     28  C21        0.7530   -1.2280   -1.2380 C.ar    1  UNL1        0.1374
     29  F1         1.8430   -1.0110   -2.0280 F       1  UNL1       -0.2046
     30 H           8.0982    2.0020    0.2917 H       1  UNL1        0.0279
     31 H           7.1364    0.9477    1.2999 H       1  UNL1        0.0279
     32 H           6.5341    2.5292    0.8650 H       1  UNL1        0.0279
     33 H           7.9593    1.2596   -2.2061 H       1  UNL1        0.0826
     34 H           6.2085    0.1861   -3.6735 H       1  UNL1        0.1882
     35 H           4.0250    1.5464    0.7514 H       1  UNL1        0.0765
     36 H           4.6302   -0.0221    1.1992 H       1  UNL1        0.0765
     37 H          -0.4129   -0.8584    1.8053 H       1  UNL1        0.0629
     38 H          -2.3715   -2.3811    2.0572 H       1  UNL1        0.0377
     39 H          -3.3493   -2.6764    0.6084 H       1  UNL1        0.0377
     40 H          -3.4969    1.4500    3.7365 H       1  UNL1        0.1921
     41 H          -6.5042    2.3620    0.4016 H       1  UNL1        0.0625
     42 H          -7.1583    1.2361   -1.6598 H       1  UNL1        0.0618
     43 H          -6.0428   -0.8391   -2.2256 H       1  UNL1        0.0618
     44 H          -4.3573   -1.7564   -0.8187 H       1  UNL1        0.0624
     45 H          -2.3294   -2.5260   -1.5084 H       1  UNL1        0.0621
     46 H          -0.3226   -2.0854   -2.8130 H       1  UNL1        0.0646
@<TRIPOS>BOND
     1     1     2    1
     2     2     3   ar
     3     2     6   ar
     4     3     4   ar
     5     4     5   ar
     6     5     6   ar
     7     6     7    1
     8     7     8    1
     9     8     9    1
    10     9    10    2
    11     9    11    1
    12    11    12   ar
    13    11    28   ar
    14    12    13   ar
    15    13    14    1
    16    13    26   ar
    17    14    15    1
    18    15    16   ar
    19    15    25   ar
    20    16    17   ar
    21    17    18   ar
    22    18    19    2
    23    18    20   ar
    24    20    21   ar
    25    20    25   ar
    26    21    22   ar
    27    22    23   ar
    28    23    24   ar
    29    24    25   ar
    30    26    27   ar
    31    27    28   ar
    32    28    29    1
    33     1    30    1
    34     1    31    1
    35     1    32    1
    36     3    33    1
    37     4    34    1
    38     7    35    1
    39     7    36    1
    40    12    37    1
    41    14    38    1
    42    14    39    1
    43    17    40    1
    44    21    41    1
    45    22    42    1
    46    23    43    1
    47    24    44    1
    48    26    45    1
    49    27    46    1
@<TRIPOS>MOLECULE
../data/bude_mols_rdkit_confs2/molecule_75.pdb
 46 49 0 0 0
SMALL
GASTEIGER

@<TRIPOS>ATOM
      1  C1        -6.6980    2.4790    0.4450 C.3     1  UNL1       -0.0364
      2  C2        -6.2850    1.2850   -0.3620 C.ar    1  UNL1       -0.0067
      3  C3        -7.0580    0.6220   -1.3050 C.ar    1  UNL1        0.0256
      4  N1        -6.3240   -0.3880   -1.7990 N.ar    1  UNL1       -0.2841
      5  N2        -5.1330   -0.3690   -1.1970 N.ar    1  UNL1       -0.1752
      6  C4        -5.0820    0.6340   -0.3210 C.ar    1  UNL1        0.1029
      7  C5        -3.9350    0.9730    0.5330 C.3     1  UNL1        0.1365
      8  O1        -2.8740    0.0790    0.2930 O.3     1  UNL1       -0.4547
      9  C6        -1.6640    0.1140    0.9230 C.2     1  UNL1        0.3424
     10  O2        -1.4430    0.9940    1.7880 O.2     1  UNL1       -0.2448
     11  C7        -0.6430   -0.8570    0.5950 C.ar    1  UNL1        0.0943
     12  C8         0.5980   -0.8930    1.1970 C.ar    1  UNL1       -0.0414
     13  C9         1.5860   -1.7810    0.9230 C.ar    1  UNL1       -0.0406
     14  C10        2.9350   -1.8270    1.5510 C.3     1  UNL1        0.0171
     15  C11        3.9530   -1.3380    0.6400 C.ar    1  UNL1        0.0736
     16  N3         4.6400   -2.2630   -0.0940 N.ar    1  UNL1       -0.1750
     17  N4         5.5390   -1.9090   -0.9660 N.ar    1  UNL1       -0.2425
     18  C12        5.8540   -0.6170   -1.2050 C.ar    1  UNL1        0.2725
     19  O3         6.7200   -0.2670   -2.0470 O.2     1  UNL1       -0.2658
     20  C13        5.2030    0.3760   -0.5030 C.ar    1  UNL1        0.0496
     21  C14        5.5330    1.6940   -0.7370 C.ar    1  UNL1       -0.0487
     22  C15        4.8600    2.6340    0.0060 C.ar    1  UNL1       -0.0610
     23  C16        3.9130    2.3050    0.9300 C.ar    1  UNL1       -0.0611
     24  C17        3.6160    0.9740    1.1310 C.ar    1  UNL1       -0.0521
     25  C18        4.2420   -0.0200    0.4290 C.ar    1  UNL1        0.0106
     26  C19        1.2970   -2.7420   -0.0650 C.ar    1  UNL1       -0.0555
     27  C20        0.0730   -2.7350   -0.6830 C.ar    1  UNL1       -0.0254
     28  C21       -0.9070   -1.8030   -0.3680 C.ar    1  UNL1        0.1374
     29  F1        -2.0860   -1.8730   -1.0310 F       1  UNL1       -0.2046
     30 H          -7.6988    2.7554    0.1865 H       1  UNL1        0.0279
     31 H          -6.0378    3.2952    0.2379 H       1  UNL1        0.0279
     32 H          -6.6521    2.2387    1.4866 H       1  UNL1        0.0279
     33 H          -8.0239    0.8623   -1.5777 H       1  UNL1        0.0826
     34 H          -6.6140   -1.0309   -2.4859 H       1  UNL1        0.1882
     35 H          -4.2270    0.9084    1.5604 H       1  UNL1        0.0765
     36 H          -3.6127    1.9683    0.3088 H       1  UNL1        0.0765
     37 H           0.7915   -0.1817    1.9193 H       1  UNL1        0.0629
     38 H           3.1617   -2.8380    1.8180 H       1  UNL1        0.0377
     39 H           2.9270   -1.2012    2.4189 H       1  UNL1        0.0377
     40 H           6.0085   -2.6110   -1.4719 H       1  UNL1        0.1921
     41 H           6.2471    1.9604   -1.4328 H       1  UNL1        0.0625
     42 H           5.0808    3.6312   -0.1417 H       1  UNL1        0.0618
     43 H           3.4274    3.0390    1.4690 H       1  UNL1        0.0618
     44 H           2.9013    0.7199    1.8307 H       1  UNL1        0.0624
     45 H           2.0036   -3.4486   -0.3228 H       1  UNL1        0.0621
     46 H          -0.1262   -3.4449   -1.4051 H       1  UNL1        0.0646
@<TRIPOS>BOND
     1     1     2    1
     2     2     3   ar
     3     2     6   ar
     4     3     4   ar
     5     4     5   ar
     6     5     6   ar
     7     6     7    1
     8     7     8    1
     9     8     9    1
    10     9    10    2
    11     9    11    1
    12    11    12   ar
    13    11    28   ar
    14    12    13   ar
    15    13    14    1
    16    13    26   ar
    17    14    15    1
    18    15    16   ar
    19    15    25   ar
    20    16    17   ar
    21    17    18   ar
    22    18    19    2
    23    18    20   ar
    24    20    21   ar
    25    20    25   ar
    26    21    22   ar
    27    22    23   ar
    28    23    24   ar
    29    24    25   ar
    30    26    27   ar
    31    27    28   ar
    32    28    29    1
    33     1    30    1
    34     1    31    1
    35     1    32    1
    36     3    33    1
    37     4    34    1
    38     7    35    1
    39     7    36    1
    40    12    37    1
    41    14    38    1
    42    14    39    1
    43    17    40    1
    44    21    41    1
    45    22    42    1
    46    23    43    1
    47    24    44    1
    48    26    45    1
    49    27    46    1
@<TRIPOS>MOLECULE
../data/bude_mols_rdkit_confs2/molecule_75.pdb
 46 49 0 0 0
SMALL
GASTEIGER

@<TRIPOS>ATOM
      1  C1        -6.5650    2.3520   -0.2830 C.3     1  UNL1       -0.0364
      2  C2        -5.7740    1.1870   -0.7620 C.ar    1  UNL1       -0.0067
      3  C3        -6.1750    0.3210   -1.7570 C.ar    1  UNL1        0.0256
      4  N1        -5.2070   -0.6020   -1.9170 N.ar    1  UNL1       -0.2841
      5  N2        -4.2200   -0.3420   -1.0610 N.ar    1  UNL1       -0.1752
      6  C4        -4.5380    0.7480   -0.3400 C.ar    1  UNL1        0.1029
      7  C5        -3.7160    1.3710    0.7190 C.3     1  UNL1        0.1365
      8  O1        -2.5080    0.7090    0.9350 O.3     1  UNL1       -0.4547
      9  C6        -2.3980   -0.6190    1.3280 C.2     1  UNL1        0.3424
     10  O2        -3.4790   -1.2430    1.4920 O.2     1  UNL1       -0.2448
     11  C7        -1.1040   -1.2580    1.5400 C.ar    1  UNL1        0.0943
     12  C8         0.0680   -0.5590    1.3560 C.ar    1  UNL1       -0.0414
     13  C9         1.2940   -1.2020    1.5670 C.ar    1  UNL1       -0.0406
     14  C10        2.5060   -0.4090    1.3570 C.3     1  UNL1        0.0171
     15  C11        3.0210   -0.4670   -0.0360 C.ar    1  UNL1        0.0736
     16  N3         2.4740   -1.1500   -1.0140 N.ar    1  UNL1       -0.1750
     17  N4         2.9760   -1.1630   -2.2250 N.ar    1  UNL1       -0.2425
     18  C12        4.0870   -0.4610   -2.5030 C.ar    1  UNL1        0.2725
     19  O3         4.5670   -0.4750   -3.6650 O.2     1  UNL1       -0.2658
     20  C13        4.7130    0.2760   -1.5280 C.ar    1  UNL1        0.0496
     21  C14        5.8500    1.0060   -1.7710 C.ar    1  UNL1       -0.0487
     22  C15        6.4740    1.7480   -0.7790 C.ar    1  UNL1       -0.0610
     23  C16        5.9140    1.7350    0.4830 C.ar    1  UNL1       -0.0611
     24  C17        4.7790    1.0080    0.7340 C.ar    1  UNL1       -0.0521
     25  C18        4.1630    0.2700   -0.2670 C.ar    1  UNL1        0.0106
     26  C19        1.3460   -2.5260    1.9580 C.ar    1  UNL1       -0.0555
     27  C20        0.1770   -3.2050    2.1360 C.ar    1  UNL1       -0.0254
     28  C21       -1.0560   -2.5780    1.9290 C.ar    1  UNL1        0.1374
     29  F1        -2.1610   -3.3300    2.1300 F       1  UNL1       -0.2046
     30 H          -7.4846    2.4068   -0.8273 H       1  UNL1        0.0279
     31 H          -6.0052    3.2508   -0.4371 H       1  UNL1        0.0279
     32 H          -6.7742    2.2365    0.7600 H       1  UNL1        0.0279
     33 H          -7.0600    0.3710   -2.2856 H       1  UNL1        0.0826
     34 H          -5.2259   -1.3465   -2.5609 H       1  UNL1        0.1882
     35 H          -4.2750    1.3656    1.6313 H       1  UNL1        0.0765
     36 H          -3.4821    2.3646    0.3980 H       1  UNL1        0.0765
     37 H           0.0431    0.4308    1.0649 H       1  UNL1        0.0629
     38 H           3.2672   -0.7739    2.0145 H       1  UNL1        0.0377
     39 H           2.2518    0.6113    1.5553 H       1  UNL1        0.0377
     40 H           2.5375   -1.6887   -2.9326 H       1  UNL1        0.1921
     41 H           6.2529    1.0026   -2.7211 H       1  UNL1        0.0625
     42 H           7.3284    2.2917   -0.9776 H       1  UNL1        0.0618
     43 H           6.3533    2.2769    1.2435 H       1  UNL1        0.0618
     44 H           4.3757    1.0096    1.6839 H       1  UNL1        0.0624
     45 H           2.2533   -2.9928    2.1126 H       1  UNL1        0.0621
     46 H           0.2024   -4.1947    2.4273 H       1  UNL1        0.0646
@<TRIPOS>BOND
     1     1     2    1
     2     2     3   ar
     3     2     6   ar
     4     3     4   ar
     5     4     5   ar
     6     5     6   ar
     7     6     7    1
     8     7     8    1
     9     8     9    1
    10     9    10    2
    11     9    11    1
    12    11    12   ar
    13    11    28   ar
    14    12    13   ar
    15    13    14    1
    16    13    26   ar
    17    14    15    1
    18    15    16   ar
    19    15    25   ar
    20    16    17   ar
    21    17    18   ar
    22    18    19    2
    23    18    20   ar
    24    20    21   ar
    25    20    25   ar
    26    21    22   ar
    27    22    23   ar
    28    23    24   ar
    29    24    25   ar
    30    26    27   ar
    31    27    28   ar
    32    28    29    1
    33     1    30    1
    34     1    31    1
    35     1    32    1
    36     3    33    1
    37     4    34    1
    38     7    35    1
    39     7    36    1
    40    12    37    1
    41    14    38    1
    42    14    39    1
    43    17    40    1
    44    21    41    1
    45    22    42    1
    46    23    43    1
    47    24    44    1
    48    26    45    1
    49    27    46    1
@<TRIPOS>MOLECULE
../data/bude_mols_rdkit_confs2/molecule_75.pdb
 46 49 0 0 0
SMALL
GASTEIGER

@<TRIPOS>ATOM
      1  C1        -6.3660    0.3790    0.7080 C.3     1  UNL1       -0.0364
      2  C2        -6.3140   -0.8820   -0.0850 C.ar    1  UNL1       -0.0067
      3  C3        -7.2730   -1.5750   -0.7270 C.ar    1  UNL1        0.0256
      4  N1        -6.6470   -2.5670   -1.3940 N.ar    1  UNL1       -0.2841
      5  N2        -5.3550   -2.5050   -1.1910 N.ar    1  UNL1       -0.1752
      6  C4        -5.0470   -1.5190   -0.4070 C.ar    1  UNL1        0.1029
      7  C5        -3.9370   -0.9720    0.3180 C.3     1  UNL1        0.1365
      8  O1        -2.7920   -0.4430   -0.3790 O.3     1  UNL1       -0.4547
      9  C6        -2.0730    0.4210    0.5140 C.2     1  UNL1        0.3424
     10  O2        -2.5540    0.5310    1.6930 O.2     1  UNL1       -0.2448
     11  C7        -0.8820    1.1900    0.2310 C.ar    1  UNL1        0.0943
     12  C8         0.0970    0.7480   -0.5670 C.ar    1  UNL1       -0.0414
     13  C9         1.3080    1.4360   -0.8350 C.ar    1  UNL1       -0.0406
     14  C10        2.2550    0.7560   -1.7280 C.3     1  UNL1        0.0171
     15  C11        3.0870   -0.3110   -1.1680 C.ar    1  UNL1        0.0736
     16  N3         2.7590   -1.6260   -1.2170 N.ar    1  UNL1       -0.1750
     17  N4         3.4700   -2.6250   -0.7610 N.ar    1  UNL1       -0.2425
     18  C12        4.6560   -2.4380   -0.1780 C.ar    1  UNL1        0.2725
     19  O3         5.3880   -3.3900    0.2600 O.2     1  UNL1       -0.2658
     20  C13        5.0920   -1.1330   -0.0650 C.ar    1  UNL1        0.0496
     21  C14        6.3030   -0.8980    0.6000 C.ar    1  UNL1       -0.0487
     22  C15        6.7100    0.4240    0.7370 C.ar    1  UNL1       -0.0610
     23  C16        5.9550    1.4260    0.2470 C.ar    1  UNL1       -0.0611
     24  C17        4.7570    1.1880   -0.3920 C.ar    1  UNL1       -0.0521
     25  C18        4.3310   -0.0970   -0.5510 C.ar    1  UNL1        0.0106
     26  C19        1.4300    2.6300   -0.2110 C.ar    1  UNL1       -0.0555
     27  C20        0.4750    3.1240    0.6060 C.ar    1  UNL1       -0.0254
     28  C21       -0.7130    2.4060    0.8470 C.ar    1  UNL1        0.1374
     29  F1        -1.7310    2.8610    1.6480 F       1  UNL1       -0.2046
     30 H          -7.3852    0.6797    0.8333 H       1  UNL1        0.0279
     31 H          -5.8283    1.1471    0.1923 H       1  UNL1        0.0279
     32 H          -5.9218    0.2154    1.6676 H       1  UNL1        0.0279
     33 H          -8.2873   -1.3850   -0.7120 H       1  UNL1        0.0826
     34 H          -7.0972   -3.2408   -1.9531 H       1  UNL1        0.1882
     35 H          -3.5739   -1.7515    0.9548 H       1  UNL1        0.0765
     36 H          -4.3581   -0.1030    0.7790 H       1  UNL1        0.0765
     37 H          -0.0401   -0.1670   -1.0242 H       1  UNL1        0.0629
     38 H           2.9153    1.5021   -2.1182 H       1  UNL1        0.0377
     39 H           1.6350    0.2609   -2.4459 H       1  UNL1        0.0377
     40 H           3.1202   -3.5409   -0.8504 H       1  UNL1        0.1921
     41 H           6.8700   -1.6754    0.9731 H       1  UNL1        0.0625
     42 H           7.5974    0.6394    1.2178 H       1  UNL1        0.0618
     43 H           6.2825    2.3989    0.3529 H       1  UNL1        0.0618
     44 H           4.1892    1.9737   -0.7459 H       1  UNL1        0.0624
     45 H           2.2863    3.1850   -0.3653 H       1  UNL1        0.0621
     46 H           0.6173    4.0398    1.0600 H       1  UNL1        0.0646
@<TRIPOS>BOND
     1     1     2    1
     2     2     3   ar
     3     2     6   ar
     4     3     4   ar
     5     4     5   ar
     6     5     6   ar
     7     6     7    1
     8     7     8    1
     9     8     9    1
    10     9    10    2
    11     9    11    1
    12    11    12   ar
    13    11    28   ar
    14    12    13   ar
    15    13    14    1
    16    13    26   ar
    17    14    15    1
    18    15    16   ar
    19    15    25   ar
    20    16    17   ar
    21    17    18   ar
    22    18    19    2
    23    18    20   ar
    24    20    21   ar
    25    20    25   ar
    26    21    22   ar
    27    22    23   ar
    28    23    24   ar
    29    24    25   ar
    30    26    27   ar
    31    27    28   ar
    32    28    29    1
    33     1    30    1
    34     1    31    1
    35     1    32    1
    36     3    33    1
    37     4    34    1
    38     7    35    1
    39     7    36    1
    40    12    37    1
    41    14    38    1
    42    14    39    1
    43    17    40    1
    44    21    41    1
    45    22    42    1
    46    23    43    1
    47    24    44    1
    48    26    45    1
    49    27    46    1
@<TRIPOS>MOLECULE
../data/bude_mols_rdkit_confs2/molecule_75.pdb
 46 49 0 0 0
SMALL
GASTEIGER

@<TRIPOS>ATOM
      1  C1         6.3230   -1.4240   -0.2110 C.3     1  UNL1       -0.0364
      2  C2         6.7330   -0.1120    0.3140 C.ar    1  UNL1       -0.0067
      3  C3         7.9040    0.3150    0.8350 C.ar    1  UNL1        0.0256
      4  N1         7.6260    1.5560    1.3210 N.ar    1  UNL1       -0.2841
      5  N2         6.3600    1.8740    1.1080 N.ar    1  UNL1       -0.1752
      6  C4         5.7540    0.9090    0.4960 C.ar    1  UNL1        0.1029
      7  C5         4.5280    0.7400   -0.2030 C.3     1  UNL1        0.1365
      8  O1         3.2140    0.5070    0.1760 O.3     1  UNL1       -0.4547
      9  C6         2.4000    0.1550   -0.9080 C.2     1  UNL1        0.3424
     10  O2         3.0700    0.1330   -2.0560 O.2     1  UNL1       -0.2448
     11  C7         1.0430   -0.1830   -1.0030 C.ar    1  UNL1        0.0943
     12  C8         0.0450    0.4270   -0.3700 C.ar    1  UNL1       -0.0414
     13  C9        -1.3350    0.1160   -0.5660 C.ar    1  UNL1       -0.0406
     14  C10       -2.3020    0.9330    0.1860 C.3     1  UNL1        0.0171
     15  C11       -3.4660    0.3680    0.8180 C.ar    1  UNL1        0.0736
     16  N3        -3.3880   -0.0510    2.1170 N.ar    1  UNL1       -0.1750
     17  N4        -4.3860   -0.5940    2.7700 N.ar    1  UNL1       -0.2425
     18  C12       -5.5960   -0.7680    2.1660 C.ar    1  UNL1        0.2725
     19  O3        -6.5970   -1.2820    2.7340 O.2     1  UNL1       -0.2658
     20  C13       -5.7310   -0.3550    0.8500 C.ar    1  UNL1        0.0496
     21  C14       -6.9630   -0.4270    0.2050 C.ar    1  UNL1       -0.0487
     22  C15       -7.1130    0.0720   -1.0610 C.ar    1  UNL1       -0.0610
     23  C16       -6.0300    0.6490   -1.7130 C.ar    1  UNL1       -0.0611
     24  C17       -4.8200    0.6910   -1.0440 C.ar    1  UNL1       -0.0521
     25  C18       -4.6930    0.1960    0.2080 C.ar    1  UNL1        0.0106
     26  C19       -1.5880   -0.8720   -1.4630 C.ar    1  UNL1       -0.0555
     27  C20       -0.5680   -1.5180   -2.1450 C.ar    1  UNL1       -0.0254
     28  C21        0.7570   -1.2140   -1.9540 C.ar    1  UNL1        0.1374
     29  F1         1.7920   -1.8230   -2.5780 F       1  UNL1       -0.2046
     30 H           7.1785   -2.0627   -0.2824 H       1  UNL1        0.0279
     31 H           5.8884   -1.3001   -1.1809 H       1  UNL1        0.0279
     32 H           5.6040   -1.8632    0.4486 H       1  UNL1        0.0279
     33 H           8.8057   -0.1863    0.8592 H       1  UNL1        0.0826
     34 H           8.2798    2.1387    1.7708 H       1  UNL1        0.1882
     35 H           4.7371   -0.0819   -0.8554 H       1  UNL1        0.0765
     36 H           4.3868    1.7820   -0.4010 H       1  UNL1        0.0765
     37 H           0.2825    1.1711    0.3045 H       1  UNL1        0.0629
     38 H          -2.6645    1.6704   -0.4994 H       1  UNL1        0.0377
     39 H          -1.7206    1.2390    1.0306 H       1  UNL1        0.0377
     40 H          -4.2611   -0.8786    3.7042 H       1  UNL1        0.1921
     41 H          -7.7682   -0.8593    0.6844 H       1  UNL1        0.0625
     42 H          -8.0302    0.0196   -1.5310 H       1  UNL1        0.0618
     43 H          -6.1254    1.0339   -2.6658 H       1  UNL1        0.0618
     44 H          -3.9986    1.1080   -1.5092 H       1  UNL1        0.0624
     45 H          -2.5658   -1.1494   -1.6418 H       1  UNL1        0.0621
     46 H          -0.8146   -2.2562   -2.8227 H       1  UNL1        0.0646
@<TRIPOS>BOND
     1     1     2    1
     2     2     3   ar
     3     2     6   ar
     4     3     4   ar
     5     4     5   ar
     6     5     6   ar
     7     6     7    1
     8     7     8    1
     9     8     9    1
    10     9    10    2
    11     9    11    1
    12    11    12   ar
    13    11    28   ar
    14    12    13   ar
    15    13    14    1
    16    13    26   ar
    17    14    15    1
    18    15    16   ar
    19    15    25   ar
    20    16    17   ar
    21    17    18   ar
    22    18    19    2
    23    18    20   ar
    24    20    21   ar
    25    20    25   ar
    26    21    22   ar
    27    22    23   ar
    28    23    24   ar
    29    24    25   ar
    30    26    27   ar
    31    27    28   ar
    32    28    29    1
    33     1    30    1
    34     1    31    1
    35     1    32    1
    36     3    33    1
    37     4    34    1
    38     7    35    1
    39     7    36    1
    40    12    37    1
    41    14    38    1
    42    14    39    1
    43    17    40    1
    44    21    41    1
    45    22    42    1
    46    23    43    1
    47    24    44    1
    48    26    45    1
    49    27    46    1
@<TRIPOS>MOLECULE
../data/bude_mols_rdkit_confs2/molecule_75.pdb
 46 49 0 0 0
SMALL
GASTEIGER

@<TRIPOS>ATOM
      1  C1        -6.5830    0.7420   -0.6490 C.3     1  UNL1       -0.0364
      2  C2        -6.7790   -0.6390   -0.1990 C.ar    1  UNL1       -0.0067
      3  C3        -7.9180   -1.2420    0.2100 C.ar    1  UNL1        0.0256
      4  N1        -7.5290   -2.4530    0.6640 N.ar    1  UNL1       -0.2841
      5  N2        -6.2110   -2.6090    0.5400 N.ar    1  UNL1       -0.1752
      6  C4        -5.6770   -1.5470    0.0170 C.ar    1  UNL1        0.1029
      7  C5        -4.4140   -1.1930   -0.5700 C.3     1  UNL1        0.1365
      8  O1        -3.3290   -0.7030    0.1770 O.3     1  UNL1       -0.4547
      9  C6        -2.3020   -0.2760   -0.6480 C.2     1  UNL1        0.3424
     10  O2        -2.4300   -0.5110   -1.9340 O.2     1  UNL1       -0.2448
     11  C7        -1.0950    0.4390   -0.3570 C.ar    1  UNL1        0.0943
     12  C8         0.0790    0.0490    0.1430 C.ar    1  UNL1       -0.0414
     13  C9         1.1740    0.9210    0.3190 C.ar    1  UNL1       -0.0406
     14  C10        2.4540    0.4700    0.8480 C.3     1  UNL1        0.0171
     15  C11        3.6490    0.6880    0.0360 C.ar    1  UNL1        0.0736
     16  N3         3.8020    1.5680   -0.9630 N.ar    1  UNL1       -0.1750
     17  N4         4.9050    1.7440   -1.6290 N.ar    1  UNL1       -0.2425
     18  C12        6.0070    1.0440   -1.3630 C.ar    1  UNL1        0.2725
     19  O3         7.1030    1.1740   -1.9710 O.2     1  UNL1       -0.2658
     20  C13        5.9480    0.1030   -0.3410 C.ar    1  UNL1        0.0496
     21  C14        7.0910   -0.6560   -0.0530 C.ar    1  UNL1       -0.0487
     22  C15        7.0700   -1.5920    0.9250 C.ar    1  UNL1       -0.0610
     23  C16        5.9020   -1.7840    1.6330 C.ar    1  UNL1       -0.0611
     24  C17        4.7700   -1.0320    1.3500 C.ar    1  UNL1       -0.0521
     25  C18        4.7820   -0.0770    0.3550 C.ar    1  UNL1        0.0106
     26  C19        1.0230    2.2230   -0.0420 C.ar    1  UNL1       -0.0555
     27  C20       -0.1840    2.6800   -0.5730 C.ar    1  UNL1       -0.0254
     28  C21       -1.2160    1.8450   -0.7320 C.ar    1  UNL1        0.1374
     29  F1        -2.3910    2.2390   -1.2320 F       1  UNL1       -0.2046
     30 H          -7.5331    1.2256   -0.7405 H       1  UNL1        0.0279
     31 H          -6.0903    0.7411   -1.5988 H       1  UNL1        0.0279
     32 H          -5.9825    1.2676    0.0638 H       1  UNL1        0.0279
     33 H          -8.8762   -0.8599    0.1815 H       1  UNL1        0.0826
     34 H          -8.1380   -3.1306    1.0370 H       1  UNL1        0.1882
     35 H          -4.6299   -0.4426   -1.3016 H       1  UNL1        0.0765
     36 H          -4.0462   -2.1503   -0.8753 H       1  UNL1        0.0765
     37 H           0.1917   -0.9402    0.4146 H       1  UNL1        0.0629
     38 H           2.3738   -0.5832    1.0192 H       1  UNL1        0.0377
     39 H           2.6098    1.0726    1.7184 H       1  UNL1        0.0377
     40 H           4.9263    2.4136   -2.3504 H       1  UNL1        0.1921
     41 H           7.9571   -0.4997   -0.5919 H       1  UNL1        0.0625
     42 H           7.9114   -2.1508    1.1366 H       1  UNL1        0.0618
     43 H           5.8693   -2.4942    2.3810 H       1  UNL1        0.0618
     44 H           3.9063   -1.1899    1.8924 H       1  UNL1        0.0624
     45 H           1.8094    2.8805    0.0779 H       1  UNL1        0.0621
     46 H          -0.2808    3.6707   -0.8452 H       1  UNL1        0.0646
@<TRIPOS>BOND
     1     1     2    1
     2     2     3   ar
     3     2     6   ar
     4     3     4   ar
     5     4     5   ar
     6     5     6   ar
     7     6     7    1
     8     7     8    1
     9     8     9    1
    10     9    10    2
    11     9    11    1
    12    11    12   ar
    13    11    28   ar
    14    12    13   ar
    15    13    14    1
    16    13    26   ar
    17    14    15    1
    18    15    16   ar
    19    15    25   ar
    20    16    17   ar
    21    17    18   ar
    22    18    19    2
    23    18    20   ar
    24    20    21   ar
    25    20    25   ar
    26    21    22   ar
    27    22    23   ar
    28    23    24   ar
    29    24    25   ar
    30    26    27   ar
    31    27    28   ar
    32    28    29    1
    33     1    30    1
    34     1    31    1
    35     1    32    1
    36     3    33    1
    37     4    34    1
    38     7    35    1
    39     7    36    1
    40    12    37    1
    41    14    38    1
    42    14    39    1
    43    17    40    1
    44    21    41    1
    45    22    42    1
    46    23    43    1
    47    24    44    1
    48    26    45    1
    49    27    46    1
@<TRIPOS>MOLECULE
../data/bude_mols_rdkit_confs2/molecule_75.pdb
 46 49 0 0 0
SMALL
GASTEIGER

@<TRIPOS>ATOM
      1  C1        -6.9890   -0.5580    1.3820 C.3     1  UNL1       -0.0364
      2  C2        -5.8940   -1.0130    0.4940 C.ar    1  UNL1       -0.0067
      3  C3        -6.0180   -2.0620   -0.4080 C.ar    1  UNL1        0.0256
      4  N1        -4.8110   -2.1280   -0.9990 N.ar    1  UNL1       -0.2841
      5  N2        -3.9870   -1.2040   -0.5200 N.ar    1  UNL1       -0.1752
      6  C4        -4.6360   -0.4860    0.4210 C.ar    1  UNL1        0.1029
      7  C5        -4.0670    0.6390    1.2070 C.3     1  UNL1        0.1365
      8  O1        -2.7230    0.8900    0.8290 O.3     1  UNL1       -0.4547
      9  C6        -2.3800    1.2440   -0.4720 C.2     1  UNL1        0.3424
     10  O2        -3.2240    1.3550   -1.3650 O.2     1  UNL1       -0.2448
     11  C7        -0.9650    1.4970   -0.7900 C.ar    1  UNL1        0.0943
     12  C8         0.0210    1.3760    0.1600 C.ar    1  UNL1       -0.0414
     13  C9         1.3820    1.6200   -0.0980 C.ar    1  UNL1       -0.0406
     14  C10        2.3700    1.4500    1.0130 C.3     1  UNL1        0.0171
     15  C11        3.0120    0.1390    1.0370 C.ar    1  UNL1        0.0736
     16  N3         2.4200   -0.8790    1.7330 N.ar    1  UNL1       -0.1750
     17  N4         2.8460   -2.1030    1.7700 N.ar    1  UNL1       -0.2425
     18  C12        3.9640   -2.4210    1.0730 C.ar    1  UNL1        0.2725
     19  O3         4.3750   -3.5980    1.1070 O.2     1  UNL1       -0.2658
     20  C13        4.6380   -1.4710    0.3410 C.ar    1  UNL1        0.0496
     21  C14        5.7930   -1.7540   -0.3600 C.ar    1  UNL1       -0.0487
     22  C15        6.4630   -0.7690   -1.0660 C.ar    1  UNL1       -0.0610
     23  C16        5.9860    0.5230   -1.0810 C.ar    1  UNL1       -0.0611
     24  C17        4.8150    0.7630   -0.3590 C.ar    1  UNL1       -0.0521
     25  C18        4.1310   -0.1790    0.3420 C.ar    1  UNL1        0.0106
     26  C19        1.6890    1.9930   -1.3710 C.ar    1  UNL1       -0.0555
     27  C20        0.7400    2.1340   -2.3800 C.ar    1  UNL1       -0.0254
     28  C21       -0.5710    1.8780   -2.0530 C.ar    1  UNL1        0.1374
     29  F1        -1.5410    1.9990   -3.0020 F       1  UNL1       -0.2046
     30 H          -7.8569   -1.1614    1.2160 H       1  UNL1        0.0279
     31 H          -7.2196    0.4648    1.1686 H       1  UNL1        0.0279
     32 H          -6.6814   -0.6488    2.4028 H       1  UNL1        0.0279
     33 H          -6.8448   -2.6540   -0.5842 H       1  UNL1        0.0826
     34 H          -4.5698   -2.7785   -1.6975 H       1  UNL1        0.1882
     35 H          -4.0981    0.3908    2.2474 H       1  UNL1        0.0765
     36 H          -4.6464    1.5180    1.0157 H       1  UNL1        0.0765
     37 H          -0.2519    1.0909    1.1136 H       1  UNL1        0.0629
     38 H           1.8597    1.5925    1.9426 H       1  UNL1        0.0377
     39 H           3.1435    2.1722    0.8546 H       1  UNL1        0.0377
     40 H           2.3678   -2.7865    2.2929 H       1  UNL1        0.1921
     41 H           6.1639   -2.7171   -0.3579 H       1  UNL1        0.0625
     42 H           7.3243   -1.0042   -1.5836 H       1  UNL1        0.0618
     43 H           6.4686    1.2742   -1.5986 H       1  UNL1        0.0618
     44 H           4.4421    1.7253   -0.3577 H       1  UNL1        0.0624
     45 H           2.6775    2.1812   -1.6001 H       1  UNL1        0.0621
     46 H           1.0095    2.4191   -3.3345 H       1  UNL1        0.0646
@<TRIPOS>BOND
     1     1     2    1
     2     2     3   ar
     3     2     6   ar
     4     3     4   ar
     5     4     5   ar
     6     5     6   ar
     7     6     7    1
     8     7     8    1
     9     8     9    1
    10     9    10    2
    11     9    11    1
    12    11    12   ar
    13    11    28   ar
    14    12    13   ar
    15    13    14    1
    16    13    26   ar
    17    14    15    1
    18    15    16   ar
    19    15    25   ar
    20    16    17   ar
    21    17    18   ar
    22    18    19    2
    23    18    20   ar
    24    20    21   ar
    25    20    25   ar
    26    21    22   ar
    27    22    23   ar
    28    23    24   ar
    29    24    25   ar
    30    26    27   ar
    31    27    28   ar
    32    28    29    1
    33     1    30    1
    34     1    31    1
    35     1    32    1
    36     3    33    1
    37     4    34    1
    38     7    35    1
    39     7    36    1
    40    12    37    1
    41    14    38    1
    42    14    39    1
    43    17    40    1
    44    21    41    1
    45    22    42    1
    46    23    43    1
    47    24    44    1
    48    26    45    1
    49    27    46    1
@<TRIPOS>MOLECULE
../data/bude_mols_rdkit_confs2/molecule_75.pdb
 46 49 0 0 0
SMALL
GASTEIGER

@<TRIPOS>ATOM
      1  C1         6.1210   -0.7970    0.3000 C.3     1  UNL1       -0.0364
      2  C2         6.3460    0.5240   -0.3370 C.ar    1  UNL1       -0.0067
      3  C3         7.2320    0.8710   -1.2840 C.ar    1  UNL1        0.0256
      4  N1         6.9720    2.1190   -1.6530 N.ar    1  UNL1       -0.2841
      5  N2         5.9050    2.5830   -0.9530 N.ar    1  UNL1       -0.1752
      6  C4         5.4650    1.6640   -0.1140 C.ar    1  UNL1        0.1029
      7  C5         4.6240    1.6230    1.0010 C.3     1  UNL1        0.1365
      8  O1         3.2400    1.8440    1.1170 O.3     1  UNL1       -0.4547
      9  C6         2.5000    0.9080    0.3000 C.2     1  UNL1        0.3424
     10  O2         3.1800    0.2760   -0.5310 O.2     1  UNL1       -0.2448
     11  C7         1.0810    0.6780    0.4660 C.ar    1  UNL1        0.0943
     12  C8         0.1060    0.4910   -0.4250 C.ar    1  UNL1       -0.0414
     13  C9        -1.1780   -0.0080   -0.0720 C.ar    1  UNL1       -0.0406
     14  C10       -2.1560   -0.1710   -1.1470 C.3     1  UNL1        0.0171
     15  C11       -3.2910   -1.0750   -0.9530 C.ar    1  UNL1        0.0736
     16  N3        -3.2200   -2.3330   -1.4580 N.ar    1  UNL1       -0.1750
     17  N4        -4.2890   -3.1230   -1.4750 N.ar    1  UNL1       -0.2425
     18  C12       -5.4800   -2.7280   -1.0000 C.ar    1  UNL1        0.2725
     19  O3        -6.4810   -3.5210   -1.0470 O.2     1  UNL1       -0.2658
     20  C13       -5.5960   -1.4750   -0.4740 C.ar    1  UNL1        0.0496
     21  C14       -6.8440   -1.0680   -0.0100 C.ar    1  UNL1       -0.0487
     22  C15       -6.9360    0.2270    0.4890 C.ar    1  UNL1       -0.0610
     23  C16       -5.8600    1.0470    0.5270 C.ar    1  UNL1       -0.0611
     24  C17       -4.6120    0.6250    0.0550 C.ar    1  UNL1       -0.0521
     25  C18       -4.4810   -0.6300   -0.4480 C.ar    1  UNL1        0.0106
     26  C19       -1.4240   -0.3060    1.2390 C.ar    1  UNL1       -0.0555
     27  C20       -0.4570   -0.1300    2.1930 C.ar    1  UNL1       -0.0254
     28  C21        0.7480    0.3440    1.8420 C.ar    1  UNL1        0.1374
     29  F1         1.7560    0.5680    2.7220 F       1  UNL1       -0.2046
     30 H           6.8885   -1.4764   -0.0071 H       1  UNL1        0.0279
     31 H           5.1667   -1.1786    0.0023 H       1  UNL1        0.0279
     32 H           6.1455   -0.6886    1.3642 H       1  UNL1        0.0279
     33 H           7.9838    0.2720   -1.6594 H       1  UNL1        0.0826
     34 H           7.4744    2.6289   -2.3289 H       1  UNL1        0.1882
     35 H           5.0552    2.3338    1.6746 H       1  UNL1        0.0765
     36 H           4.5980    0.5587    1.1086 H       1  UNL1        0.0765
     37 H           0.2917    0.7185   -1.4143 H       1  UNL1        0.0629
     38 H          -1.6211   -0.5214   -2.0049 H       1  UNL1        0.0377
     39 H          -2.6114    0.7942   -1.2232 H       1  UNL1        0.0377
     40 H          -4.2038   -4.0296   -1.8492 H       1  UNL1        0.1921
     41 H          -7.6617   -1.6971   -0.0351 H       1  UNL1        0.0625
     42 H          -7.8446    0.5701    0.8379 H       1  UNL1        0.0618
     43 H          -5.9616    1.9997    0.9106 H       1  UNL1        0.0618
     44 H          -3.7997    1.2606    0.0887 H       1  UNL1        0.0624
     45 H          -2.3504   -0.6684    1.5137 H       1  UNL1        0.0621
     46 H          -0.6548   -0.3614    3.1791 H       1  UNL1        0.0646
@<TRIPOS>BOND
     1     1     2    1
     2     2     3   ar
     3     2     6   ar
     4     3     4   ar
     5     4     5   ar
     6     5     6   ar
     7     6     7    1
     8     7     8    1
     9     8     9    1
    10     9    10    2
    11     9    11    1
    12    11    12   ar
    13    11    28   ar
    14    12    13   ar
    15    13    14    1
    16    13    26   ar
    17    14    15    1
    18    15    16   ar
    19    15    25   ar
    20    16    17   ar
    21    17    18   ar
    22    18    19    2
    23    18    20   ar
    24    20    21   ar
    25    20    25   ar
    26    21    22   ar
    27    22    23   ar
    28    23    24   ar
    29    24    25   ar
    30    26    27   ar
    31    27    28   ar
    32    28    29    1
    33     1    30    1
    34     1    31    1
    35     1    32    1
    36     3    33    1
    37     4    34    1
    38     7    35    1
    39     7    36    1
    40    12    37    1
    41    14    38    1
    42    14    39    1
    43    17    40    1
    44    21    41    1
    45    22    42    1
    46    23    43    1
    47    24    44    1
    48    26    45    1
    49    27    46    1
@<TRIPOS>MOLECULE
../data/bude_mols_rdkit_confs2/molecule_75.pdb
 46 49 0 0 0
SMALL
GASTEIGER

@<TRIPOS>ATOM
      1  C1         7.0540    1.2370    1.1660 C.3     1  UNL1       -0.0364
      2  C2         6.4320   -0.0990    0.9240 C.ar    1  UNL1       -0.0067
      3  C3         7.0040   -1.3400    1.0720 C.ar    1  UNL1        0.0256
      4  N1         6.0880   -2.2580    0.7480 N.ar    1  UNL1       -0.2841
      5  N2         4.9820   -1.6240    0.4090 N.ar    1  UNL1       -0.1752
      6  C4         5.1340   -0.3000    0.4980 C.ar    1  UNL1        0.1029
      7  C5         4.1060    0.7280    0.1970 C.3     1  UNL1        0.1365
      8  O1         2.9320    0.0940   -0.2020 O.3     1  UNL1       -0.4547
      9  C6         1.7550    0.6990   -0.5640 C.2     1  UNL1        0.3424
     10  O2         1.7040    1.9480   -0.5400 O.2     1  UNL1       -0.2448
     11  C7         0.6300   -0.1380   -0.9540 C.ar    1  UNL1        0.0943
     12  C8        -0.5440    0.4580   -1.3010 C.ar    1  UNL1       -0.0414
     13  C9        -1.6730   -0.2760   -1.6900 C.ar    1  UNL1       -0.0406
     14  C10       -2.8660    0.4790   -2.0570 C.3     1  UNL1        0.0171
     15  C11       -3.5390    0.9930   -0.8610 C.ar    1  UNL1        0.0736
     16  N3        -3.2270    2.2730   -0.5030 N.ar    1  UNL1       -0.1750
     17  N4        -3.7030    2.8740    0.5650 N.ar    1  UNL1       -0.2425
     18  C12       -4.5510    2.2550    1.3990 C.ar    1  UNL1        0.2725
     19  O3        -5.0370    2.7700    2.4310 O.2     1  UNL1       -0.2658
     20  C13       -4.9020    0.9620    1.0870 C.ar    1  UNL1        0.0496
     21  C14       -5.7780    0.2260    1.8640 C.ar    1  UNL1       -0.0487
     22  C15       -6.1460   -1.0550    1.5610 C.ar    1  UNL1       -0.0610
     23  C16       -5.6150   -1.6400    0.4180 C.ar    1  UNL1       -0.0611
     24  C17       -4.7510   -0.9540   -0.3730 C.ar    1  UNL1       -0.0521
     25  C18       -4.3960    0.3310   -0.0440 C.ar    1  UNL1        0.0106
     26  C19       -1.5380   -1.6260   -1.7020 C.ar    1  UNL1       -0.0555
     27  C20       -0.3530   -2.2450   -1.3510 C.ar    1  UNL1       -0.0254
     28  C21        0.7270   -1.4940   -0.9780 C.ar    1  UNL1        0.1374
     29  F1         1.8620   -2.1400   -0.6440 F       1  UNL1       -0.2046
     30 H           8.0656    1.1062    1.4892 H       1  UNL1        0.0279
     31 H           6.5023    1.7556    1.9220 H       1  UNL1        0.0279
     32 H           7.0398    1.8064    0.2602 H       1  UNL1        0.0279
     33 H           7.9708   -1.5297    1.3793 H       1  UNL1        0.0826
     34 H           6.2161   -3.2341    0.7602 H       1  UNL1        0.1882
     35 H           4.4548    1.3643   -0.5893 H       1  UNL1        0.0765
     36 H           3.9189    1.3177    1.0700 H       1  UNL1        0.0765
     37 H          -0.6048    1.4879   -1.2767 H       1  UNL1        0.0629
     38 H          -3.5371   -0.1613   -2.5904 H       1  UNL1        0.0377
     39 H          -2.5759    1.3054   -2.6717 H       1  UNL1        0.0377
     40 H          -3.4304    3.8003    0.7569 H       1  UNL1        0.1921
     41 H          -6.1718    0.6641    2.7114 H       1  UNL1        0.0625
     42 H          -6.8015   -1.5744    2.1657 H       1  UNL1        0.0618
     43 H          -5.8801   -2.6055    0.1679 H       1  UNL1        0.0618
     44 H          -4.3618   -1.3973   -1.2198 H       1  UNL1        0.0624
     45 H          -2.3435   -2.2076   -1.9813 H       1  UNL1        0.0621
     46 H          -0.2834   -3.2745   -1.3705 H       1  UNL1        0.0646
@<TRIPOS>BOND
     1     1     2    1
     2     2     3   ar
     3     2     6   ar
     4     3     4   ar
     5     4     5   ar
     6     5     6   ar
     7     6     7    1
     8     7     8    1
     9     8     9    1
    10     9    10    2
    11     9    11    1
    12    11    12   ar
    13    11    28   ar
    14    12    13   ar
    15    13    14    1
    16    13    26   ar
    17    14    15    1
    18    15    16   ar
    19    15    25   ar
    20    16    17   ar
    21    17    18   ar
    22    18    19    2
    23    18    20   ar
    24    20    21   ar
    25    20    25   ar
    26    21    22   ar
    27    22    23   ar
    28    23    24   ar
    29    24    25   ar
    30    26    27   ar
    31    27    28   ar
    32    28    29    1
    33     1    30    1
    34     1    31    1
    35     1    32    1
    36     3    33    1
    37     4    34    1
    38     7    35    1
    39     7    36    1
    40    12    37    1
    41    14    38    1
    42    14    39    1
    43    17    40    1
    44    21    41    1
    45    22    42    1
    46    23    43    1
    47    24    44    1
    48    26    45    1
    49    27    46    1
@<TRIPOS>MOLECULE
../data/bude_mols_rdkit_confs2/molecule_75.pdb
 46 49 0 0 0
SMALL
GASTEIGER

@<TRIPOS>ATOM
      1  C1         4.5540    1.6340    1.8730 C.3     1  UNL1       -0.0364
      2  C2         5.5100    1.4030    0.7610 C.ar    1  UNL1       -0.0067
      3  C3         6.9060    1.4480    0.9380 C.ar    1  UNL1        0.0256
      4  N1         7.3850    1.0870   -0.2650 N.ar    1  UNL1       -0.2841
      5  N2         6.4280    0.8320   -1.1410 N.ar    1  UNL1       -0.1752
      6  C4         5.2030    1.0220   -0.4960 C.ar    1  UNL1        0.1029
      7  C5         3.9140    0.9550   -1.1760 C.3     1  UNL1        0.1365
      8  O1         2.8960    0.1770   -0.8610 O.3     1  UNL1       -0.4547
      9  C6         2.4580   -1.0510   -0.5020 C.2     1  UNL1        0.3424
     10  O2         3.4350   -1.8780   -0.3020 O.2     1  UNL1       -0.2448
     11  C7         1.1160   -1.5550   -0.2880 C.ar    1  UNL1        0.0943
     12  C8         0.0290   -1.0850    0.3630 C.ar    1  UNL1       -0.0414
     13  C9        -1.1690   -1.7280    0.4740 C.ar    1  UNL1       -0.0406
     14  C10       -2.3900   -1.3370    1.2290 C.3     1  UNL1        0.0171
     15  C11       -3.5800   -0.9210    0.5320 C.ar    1  UNL1        0.0736
     16  N3        -4.3380   -1.8900   -0.0810 N.ar    1  UNL1       -0.1750
     17  N4        -5.4430   -1.6150   -0.7300 N.ar    1  UNL1       -0.2425
     18  C12       -5.9220   -0.3280   -0.8410 C.ar    1  UNL1        0.2725
     19  O3        -6.9830   -0.1130   -1.4820 O.2     1  UNL1       -0.2658
     20  C13       -5.1710    0.6510   -0.2360 C.ar    1  UNL1        0.0496
     21  C14       -5.6870    1.9400   -0.2840 C.ar    1  UNL1       -0.0487
     22  C15       -5.0340    2.9690    0.3650 C.ar    1  UNL1       -0.0610
     23  C16       -3.8540    2.6890    1.0610 C.ar    1  UNL1       -0.0611
     24  C17       -3.3260    1.3710    1.1030 C.ar    1  UNL1       -0.0521
     25  C18       -3.9880    0.3800    0.4530 C.ar    1  UNL1        0.0106
     26  C19       -1.2680   -2.9910   -0.1740 C.ar    1  UNL1       -0.0555
     27  C20       -0.2300   -3.5270   -0.8590 C.ar    1  UNL1       -0.0254
     28  C21        0.9400   -2.8450   -0.9220 C.ar    1  UNL1        0.1374
     29  F1         2.0190   -3.3520   -1.5810 F       1  UNL1       -0.2046
     30 H           5.0916    1.9278    2.7503 H       1  UNL1        0.0279
     31 H           4.0131    0.7324    2.0714 H       1  UNL1        0.0279
     32 H           3.8683    2.4083    1.5988 H       1  UNL1        0.0279
     33 H           7.4350    1.6983    1.7880 H       1  UNL1        0.0826
     34 H           8.3452    1.0197   -0.4716 H       1  UNL1        0.1882
     35 H           4.1483    0.7077   -2.1903 H       1  UNL1        0.0765
     36 H           3.5102    1.9004   -0.8793 H       1  UNL1        0.0765
     37 H           0.1123   -0.1608    0.8147 H       1  UNL1        0.0629
     38 H          -2.1089   -0.5251    1.8667 H       1  UNL1        0.0377
     39 H          -2.6906   -2.2541    1.6910 H       1  UNL1        0.0377
     40 H          -5.9455   -2.3497   -1.1506 H       1  UNL1        0.1921
     41 H          -6.5580    2.1283   -0.8045 H       1  UNL1        0.0625
     42 H          -5.4108    3.9293    0.3369 H       1  UNL1        0.0618
     43 H          -3.3596    3.4508    1.5512 H       1  UNL1        0.0618
     44 H          -2.4547    1.1704    1.6184 H       1  UNL1        0.0624
     45 H          -2.1563   -3.5135   -0.1204 H       1  UNL1        0.0621
     46 H          -0.3282   -4.4418   -1.3265 H       1  UNL1        0.0646
@<TRIPOS>BOND
     1     1     2    1
     2     2     3   ar
     3     2     6   ar
     4     3     4   ar
     5     4     5   ar
     6     5     6   ar
     7     6     7    1
     8     7     8    1
     9     8     9    1
    10     9    10    2
    11     9    11    1
    12    11    12   ar
    13    11    28   ar
    14    12    13   ar
    15    13    14    1
    16    13    26   ar
    17    14    15    1
    18    15    16   ar
    19    15    25   ar
    20    16    17   ar
    21    17    18   ar
    22    18    19    2
    23    18    20   ar
    24    20    21   ar
    25    20    25   ar
    26    21    22   ar
    27    22    23   ar
    28    23    24   ar
    29    24    25   ar
    30    26    27   ar
    31    27    28   ar
    32    28    29    1
    33     1    30    1
    34     1    31    1
    35     1    32    1
    36     3    33    1
    37     4    34    1
    38     7    35    1
    39     7    36    1
    40    12    37    1
    41    14    38    1
    42    14    39    1
    43    17    40    1
    44    21    41    1
    45    22    42    1
    46    23    43    1
    47    24    44    1
    48    26    45    1
    49    27    46    1
@<TRIPOS>MOLECULE
../data/bude_mols_rdkit_confs2/molecule_75.pdb
 46 49 0 0 0
SMALL
GASTEIGER

@<TRIPOS>ATOM
      1  C1        -7.3540    0.4220   -1.7650 C.3     1  UNL1       -0.0364
      2  C2        -6.5320    0.0910   -0.5740 C.ar    1  UNL1       -0.0067
      3  C3        -6.9700    0.0140    0.7290 C.ar    1  UNL1        0.0256
      4  N1        -5.9300   -0.3110    1.5160 N.ar    1  UNL1       -0.2841
      5  N2        -4.8500   -0.4380    0.7370 N.ar    1  UNL1       -0.1752
      6  C4        -5.1990   -0.1950   -0.5510 C.ar    1  UNL1        0.1029
      7  C5        -4.3410   -0.2190   -1.7640 C.3     1  UNL1        0.1365
      8  O1        -3.0090   -0.5380   -1.4930 O.3     1  UNL1       -0.4547
      9  C6        -2.2440    0.2470   -0.6480 C.2     1  UNL1        0.3424
     10  O2        -2.7850    1.2560   -0.1320 O.2     1  UNL1       -0.2448
     11  C7        -0.8500   -0.1150   -0.3830 C.ar    1  UNL1        0.0943
     12  C8        -0.0470    0.6210    0.4470 C.ar    1  UNL1       -0.0414
     13  C9         1.2670    0.2170    0.6530 C.ar    1  UNL1       -0.0406
     14  C10        2.1120    1.0170    1.5520 C.3     1  UNL1        0.0171
     15  C11        3.4330    0.4100    1.7350 C.ar    1  UNL1        0.0736
     16  N3         3.7160   -0.2560    2.8550 N.ar    1  UNL1       -0.1750
     17  N4         4.9110   -0.7980    3.0020 N.ar    1  UNL1       -0.2425
     18  C12        5.8360   -0.6830    2.0340 C.ar    1  UNL1        0.2725
     19  O3         6.9530   -1.2000    2.1910 O.2     1  UNL1       -0.2658
     20  C13        5.5870   -0.0040    0.8630 C.ar    1  UNL1        0.0496
     21  C14        6.5250    0.1260   -0.1400 C.ar    1  UNL1       -0.0487
     22  C15        6.1930    0.8230   -1.2810 C.ar    1  UNL1       -0.0610
     23  C16        4.9530    1.4010   -1.4620 C.ar    1  UNL1       -0.0611
     24  C17        4.0150    1.2710   -0.4610 C.ar    1  UNL1       -0.0521
     25  C18        4.3410    0.5730    0.6860 C.ar    1  UNL1        0.0106
     26  C19        1.7790   -0.9070    0.0390 C.ar    1  UNL1       -0.0555
     27  C20        0.9700   -1.6470   -0.7970 C.ar    1  UNL1       -0.0254
     28  C21       -0.3230   -1.2390   -0.9910 C.ar    1  UNL1        0.1374
     29  F1        -1.1190   -1.9820   -1.8240 F       1  UNL1       -0.2046
     30 H          -8.3654    0.5970   -1.4629 H       1  UNL1        0.0279
     31 H          -7.3245   -0.3938   -2.4567 H       1  UNL1        0.0279
     32 H          -6.9646    1.3014   -2.2339 H       1  UNL1        0.0279
     33 H          -7.9373    0.1787    1.0487 H       1  UNL1        0.0826
     34 H          -5.9581   -0.4338    2.4924 H       1  UNL1        0.1882
     35 H          -4.3723    0.7479   -2.2211 H       1  UNL1        0.0765
     36 H          -4.7246   -0.9825   -2.4080 H       1  UNL1        0.0765
     37 H          -0.4130    1.4654    0.9139 H       1  UNL1        0.0629
     38 H           1.6303    1.0934    2.5044 H       1  UNL1        0.0377
     39 H           2.2463    1.9832    1.1124 H       1  UNL1        0.0377
     40 H           5.1260   -1.2902    3.8271 H       1  UNL1        0.1921
     41 H           7.4625   -0.2931   -0.0371 H       1  UNL1        0.0625
     42 H           6.8982    0.9164   -2.0286 H       1  UNL1        0.0618
     43 H           4.7332    1.9188   -2.3272 H       1  UNL1        0.0618
     44 H           3.0782    1.6908   -0.5670 H       1  UNL1        0.0624
     45 H           2.7574   -1.1911    0.2036 H       1  UNL1        0.0621
     46 H           1.3315   -2.4915   -1.2672 H       1  UNL1        0.0646
@<TRIPOS>BOND
     1     1     2    1
     2     2     3   ar
     3     2     6   ar
     4     3     4   ar
     5     4     5   ar
     6     5     6   ar
     7     6     7    1
     8     7     8    1
     9     8     9    1
    10     9    10    2
    11     9    11    1
    12    11    12   ar
    13    11    28   ar
    14    12    13   ar
    15    13    14    1
    16    13    26   ar
    17    14    15    1
    18    15    16   ar
    19    15    25   ar
    20    16    17   ar
    21    17    18   ar
    22    18    19    2
    23    18    20   ar
    24    20    21   ar
    25    20    25   ar
    26    21    22   ar
    27    22    23   ar
    28    23    24   ar
    29    24    25   ar
    30    26    27   ar
    31    27    28   ar
    32    28    29    1
    33     1    30    1
    34     1    31    1
    35     1    32    1
    36     3    33    1
    37     4    34    1
    38     7    35    1
    39     7    36    1
    40    12    37    1
    41    14    38    1
    42    14    39    1
    43    17    40    1
    44    21    41    1
    45    22    42    1
    46    23    43    1
    47    24    44    1
    48    26    45    1
    49    27    46    1
@<TRIPOS>MOLECULE
../data/bude_mols_rdkit_confs2/molecule_75.pdb
 46 49 0 0 0
SMALL
GASTEIGER

@<TRIPOS>ATOM
      1  C1        -6.4420   -2.0390   -0.0720 C.3     1  UNL1       -0.0364
      2  C2        -5.3910   -1.4620    0.7990 C.ar    1  UNL1       -0.0067
      3  C3        -5.3680   -1.3860    2.1570 C.ar    1  UNL1        0.0256
      4  N1        -4.2290   -0.7890    2.5240 N.ar    1  UNL1       -0.2841
      5  N2        -3.5430   -0.4920    1.4210 N.ar    1  UNL1       -0.1752
      6  C4        -4.2100   -0.8830    0.3300 C.ar    1  UNL1        0.1029
      7  C5        -3.8170   -0.7510   -1.0980 C.3     1  UNL1        0.1365
      8  O1        -2.5690   -0.1200   -1.1670 O.3     1  UNL1       -0.4547
      9  C6        -2.3020    1.1430   -0.6770 C.2     1  UNL1        0.3424
     10  O2        -3.2150    1.7940   -0.1270 O.2     1  UNL1       -0.2448
     11  C7        -0.9690    1.7520   -0.7810 C.ar    1  UNL1        0.0943
     12  C8         0.0650    1.0760   -1.3970 C.ar    1  UNL1       -0.0414
     13  C9         1.3520    1.6170   -1.5230 C.ar    1  UNL1       -0.0406
     14  C10        2.3990    0.8420   -2.2230 C.3     1  UNL1        0.0171
     15  C11        2.8840   -0.3360   -1.4730 C.ar    1  UNL1        0.0736
     16  N3         2.3550   -1.5640   -1.7040 N.ar    1  UNL1       -0.1750
     17  N4         2.7500   -2.5980   -1.0060 N.ar    1  UNL1       -0.2425
     18  C12        3.6790   -2.5250   -0.0410 C.ar    1  UNL1        0.2725
     19  O3         4.0550   -3.5230    0.6290 O.2     1  UNL1       -0.2658
     20  C13        4.2610   -1.3080    0.2480 C.ar    1  UNL1        0.0496
     21  C14        5.2300   -1.1810    1.2180 C.ar    1  UNL1       -0.0487
     22  C15        5.8280    0.0190    1.5030 C.ar    1  UNL1       -0.0610
     23  C16        5.4310    1.1160    0.7810 C.ar    1  UNL1       -0.0611
     24  C17        4.4510    0.9920   -0.2000 C.ar    1  UNL1       -0.0521
     25  C18        3.8370   -0.2110   -0.4980 C.ar    1  UNL1        0.0106
     26  C19        1.5180    2.8620   -0.9960 C.ar    1  UNL1       -0.0555
     27  C20        0.4900    3.5590   -0.3720 C.ar    1  UNL1       -0.0254
     28  C21       -0.7590    3.0110   -0.2590 C.ar    1  UNL1        0.1374
     29  F1        -1.7840    3.6950    0.3570 F       1  UNL1       -0.2046
     30 H          -7.2396   -2.4162    0.5334 H       1  UNL1        0.0279
     31 H          -6.0265   -2.8365   -0.6519 H       1  UNL1        0.0279
     32 H          -6.8188   -1.2809   -0.7264 H       1  UNL1        0.0279
     33 H          -6.1031   -1.7299    2.7944 H       1  UNL1        0.0826
     34 H          -3.9465   -0.6016    3.4483 H       1  UNL1        0.1882
     35 H          -4.5453   -0.1650   -1.6186 H       1  UNL1        0.0765
     36 H          -3.7599   -1.7192   -1.5499 H       1  UNL1        0.0765
     37 H          -0.1167    0.1351   -1.7799 H       1  UNL1        0.0629
     38 H           3.2309    1.4898   -2.4049 H       1  UNL1        0.0377
     39 H           1.9569    0.4721   -3.1244 H       1  UNL1        0.0377
     40 H           2.3447   -3.4742   -1.1989 H       1  UNL1        0.1921
     41 H           5.5160   -2.0185    1.7489 H       1  UNL1        0.0625
     42 H           6.5515    0.0947    2.2350 H       1  UNL1        0.0618
     43 H           5.8603    2.0361    0.9657 H       1  UNL1        0.0618
     44 H           4.1707    1.8336   -0.7274 H       1  UNL1        0.0624
     45 H           2.4468    3.3068   -1.0629 H       1  UNL1        0.0621
     46 H           0.6706    4.5004    0.0104 H       1  UNL1        0.0646
@<TRIPOS>BOND
     1     1     2    1
     2     2     3   ar
     3     2     6   ar
     4     3     4   ar
     5     4     5   ar
     6     5     6   ar
     7     6     7    1
     8     7     8    1
     9     8     9    1
    10     9    10    2
    11     9    11    1
    12    11    12   ar
    13    11    28   ar
    14    12    13   ar
    15    13    14    1
    16    13    26   ar
    17    14    15    1
    18    15    16   ar
    19    15    25   ar
    20    16    17   ar
    21    17    18   ar
    22    18    19    2
    23    18    20   ar
    24    20    21   ar
    25    20    25   ar
    26    21    22   ar
    27    22    23   ar
    28    23    24   ar
    29    24    25   ar
    30    26    27   ar
    31    27    28   ar
    32    28    29    1
    33     1    30    1
    34     1    31    1
    35     1    32    1
    36     3    33    1
    37     4    34    1
    38     7    35    1
    39     7    36    1
    40    12    37    1
    41    14    38    1
    42    14    39    1
    43    17    40    1
    44    21    41    1
    45    22    42    1
    46    23    43    1
    47    24    44    1
    48    26    45    1
    49    27    46    1
@<TRIPOS>MOLECULE
../data/bude_mols_rdkit_confs2/molecule_75.pdb
 46 49 0 0 0
SMALL
GASTEIGER

@<TRIPOS>ATOM
      1  C1         6.7880   -2.6060    0.9470 C.3     1  UNL1       -0.0364
      2  C2         6.1650   -1.5530    0.1020 C.ar    1  UNL1       -0.0067
      3  C3         6.7140   -1.0410   -1.0600 C.ar    1  UNL1        0.0256
      4  N1         5.8610   -0.1190   -1.5270 N.ar    1  UNL1       -0.2841
      5  N2         4.8220   -0.0450   -0.7070 N.ar    1  UNL1       -0.1752
      6  C4         4.9700   -0.9100    0.3060 C.ar    1  UNL1        0.1029
      7  C5         4.0280   -1.1190    1.4130 C.3     1  UNL1        0.1365
      8  O1         2.8950   -0.3160    1.3550 O.3     1  UNL1       -0.4547
      9  C6         1.9490   -0.2550    0.3770 C.2     1  UNL1        0.3424
     10  O2         2.0970   -1.0170   -0.6160 O.2     1  UNL1       -0.2448
     11  C7         0.8300    0.6610    0.5050 C.ar    1  UNL1        0.0943
     12  C8        -0.1680    0.7960   -0.4160 C.ar    1  UNL1       -0.0414
     13  C9        -1.2450    1.6940   -0.2780 C.ar    1  UNL1       -0.0406
     14  C10       -2.2410    1.7320   -1.3950 C.3     1  UNL1        0.0171
     15  C11       -3.1580    0.5920   -1.4180 C.ar    1  UNL1        0.0736
     16  N3        -2.7840   -0.4750   -2.1960 N.ar    1  UNL1       -0.1750
     17  N4        -3.5410   -1.5430   -2.1970 N.ar    1  UNL1       -0.2425
     18  C12       -4.6670   -1.6640   -1.4840 C.ar    1  UNL1        0.2725
     19  O3        -5.3850   -2.6960   -1.4930 O.2     1  UNL1       -0.2658
     20  C13       -5.0880   -0.6240   -0.6890 C.ar    1  UNL1        0.0496
     21  C14       -6.2540   -0.7000    0.0530 C.ar    1  UNL1       -0.0487
     22  C15       -6.6060    0.3960    0.8040 C.ar    1  UNL1       -0.0610
     23  C16       -5.8330    1.5390    0.8270 C.ar    1  UNL1       -0.0611
     24  C17       -4.6770    1.6070    0.0890 C.ar    1  UNL1       -0.0521
     25  C18       -4.2970    0.5330   -0.6680 C.ar    1  UNL1        0.0106
     26  C19       -1.2990    2.4760    0.8360 C.ar    1  UNL1       -0.0555
     27  C20       -0.2870    2.3590    1.7980 C.ar    1  UNL1       -0.0254
     28  C21        0.7510    1.4650    1.6250 C.ar    1  UNL1        0.1374
     29  F1         1.7320    1.3650    2.5810 F       1  UNL1       -0.2046
     30 H           7.7212   -2.9033    0.5161 H       1  UNL1        0.0279
     31 H           6.1350   -3.4519    1.0020 H       1  UNL1        0.0279
     32 H           6.9561   -2.2206    1.9309 H       1  UNL1        0.0279
     33 H           7.6120   -1.3173   -1.4871 H       1  UNL1        0.0826
     34 H           5.9854    0.4154   -2.3444 H       1  UNL1        0.1882
     35 H           4.5380   -0.9142    2.3311 H       1  UNL1        0.0765
     36 H           3.6912   -2.1322    1.3436 H       1  UNL1        0.0765
     37 H          -0.1318    0.2064   -1.2622 H       1  UNL1        0.0629
     38 H          -1.7060    1.7514   -2.3215 H       1  UNL1        0.0377
     39 H          -2.8396    2.6060   -1.2445 H       1  UNL1        0.0377
     40 H          -3.2649   -2.3043   -2.7569 H       1  UNL1        0.1921
     41 H          -6.8388   -1.5502    0.0427 H       1  UNL1        0.0625
     42 H          -7.4712    0.3633    1.3655 H       1  UNL1        0.0618
     43 H          -6.1248    2.3455    1.4009 H       1  UNL1        0.0618
     44 H          -4.0993    2.4620    0.1054 H       1  UNL1        0.0624
     45 H          -2.0737    3.1446    0.9695 H       1  UNL1        0.0621
     46 H          -0.3178    2.9475    2.6452 H       1  UNL1        0.0646
@<TRIPOS>BOND
     1     1     2    1
     2     2     3   ar
     3     2     6   ar
     4     3     4   ar
     5     4     5   ar
     6     5     6   ar
     7     6     7    1
     8     7     8    1
     9     8     9    1
    10     9    10    2
    11     9    11    1
    12    11    12   ar
    13    11    28   ar
    14    12    13   ar
    15    13    14    1
    16    13    26   ar
    17    14    15    1
    18    15    16   ar
    19    15    25   ar
    20    16    17   ar
    21    17    18   ar
    22    18    19    2
    23    18    20   ar
    24    20    21   ar
    25    20    25   ar
    26    21    22   ar
    27    22    23   ar
    28    23    24   ar
    29    24    25   ar
    30    26    27   ar
    31    27    28   ar
    32    28    29    1
    33     1    30    1
    34     1    31    1
    35     1    32    1
    36     3    33    1
    37     4    34    1
    38     7    35    1
    39     7    36    1
    40    12    37    1
    41    14    38    1
    42    14    39    1
    43    17    40    1
    44    21    41    1
    45    22    42    1
    46    23    43    1
    47    24    44    1
    48    26    45    1
    49    27    46    1
@<TRIPOS>MOLECULE
../data/bude_mols_rdkit_confs2/molecule_75.pdb
 46 49 0 0 0
SMALL
GASTEIGER

@<TRIPOS>ATOM
      1  C1         7.8040   -0.2850    0.2890 C.3     1  UNL1       -0.0364
      2  C2         6.6360    0.5120   -0.1380 C.ar    1  UNL1       -0.0067
      3  C3         6.6890    1.8520   -0.5170 C.ar    1  UNL1        0.0256
      4  N1         5.4210    2.1760   -0.8240 N.ar    1  UNL1       -0.2841
      5  N2         4.6290    1.1380   -0.6560 N.ar    1  UNL1       -0.1752
      6  C4         5.3450    0.0730   -0.2280 C.ar    1  UNL1        0.1029
      7  C5         4.7880   -1.2840    0.0770 C.3     1  UNL1        0.1365
      8  O1         3.3980   -1.2920   -0.1620 O.3     1  UNL1       -0.4547
      9  C6         2.4780   -0.4880    0.4620 C.2     1  UNL1        0.3424
     10  O2         2.8730    0.3320    1.3220 O.2     1  UNL1       -0.2448
     11  C7         1.0680   -0.5980    0.1200 C.ar    1  UNL1        0.0943
     12  C8         0.0900    0.1850    0.6720 C.ar    1  UNL1       -0.0414
     13  C9        -1.2630    0.0510    0.3100 C.ar    1  UNL1       -0.0406
     14  C10       -2.2500    0.9190    0.9790 C.3     1  UNL1        0.0171
     15  C11       -3.5830    0.3550    1.1650 C.ar    1  UNL1        0.0736
     16  N3        -3.8830   -0.3150    2.3130 N.ar    1  UNL1       -0.1750
     17  N4        -5.0440   -0.8900    2.5240 N.ar    1  UNL1       -0.2425
     18  C12       -6.0050   -0.8370    1.5880 C.ar    1  UNL1        0.2725
     19  O3        -7.1160   -1.3880    1.7890 O.2     1  UNL1       -0.2658
     20  C13       -5.7790   -0.1690    0.3840 C.ar    1  UNL1        0.0496
     21  C14       -6.7640   -0.0890   -0.5770 C.ar    1  UNL1       -0.0487
     22  C15       -6.5450    0.5880   -1.7540 C.ar    1  UNL1       -0.0610
     23  C16       -5.3130    1.1840   -1.9430 C.ar    1  UNL1       -0.0611
     24  C17       -4.3150    1.1140   -0.9940 C.ar    1  UNL1       -0.0521
     25  C18       -4.5550    0.4290    0.1800 C.ar    1  UNL1        0.0106
     26  C19       -1.6410   -0.8780   -0.6140 C.ar    1  UNL1       -0.0555
     27  C20       -0.6480   -1.6810   -1.1810 C.ar    1  UNL1       -0.0254
     28  C21        0.6620   -1.5390   -0.8210 C.ar    1  UNL1        0.1374
     29  F1         1.6370   -2.3250   -1.3750 F       1  UNL1       -0.2046
     30 H           8.6823    0.3255    0.2600 H       1  UNL1        0.0279
     31 H           7.9272   -1.1187   -0.3703 H       1  UNL1        0.0279
     32 H           7.6486   -0.6392    1.2867 H       1  UNL1        0.0279
     33 H           7.5203    2.4624   -0.5539 H       1  UNL1        0.0826
     34 H           5.1264    3.0638   -1.1310 H       1  UNL1        0.1882
     35 H           4.9738   -1.5222    1.1035 H       1  UNL1        0.0765
     36 H           5.2598   -2.0102   -0.5515 H       1  UNL1        0.0765
     37 H           0.3528    0.8942    1.3741 H       1  UNL1        0.0629
     38 H          -2.3510    1.8094    0.3943 H       1  UNL1        0.0377
     39 H          -1.8673    1.0804    1.9651 H       1  UNL1        0.0377
     40 H          -5.2107   -1.3619    3.3718 H       1  UNL1        0.1921
     41 H          -7.6762   -0.5423   -0.4114 H       1  UNL1        0.0625
     42 H          -7.2802    0.6491   -2.4756 H       1  UNL1        0.0618
     43 H          -5.1343    1.6969   -2.8205 H       1  UNL1        0.0618
     44 H          -3.4025    1.5669   -1.1591 H       1  UNL1        0.0624
     45 H          -2.6307   -0.9847   -0.8863 H       1  UNL1        0.0621
     46 H          -0.9082   -2.3920   -1.8823 H       1  UNL1        0.0646
@<TRIPOS>BOND
     1     1     2    1
     2     2     3   ar
     3     2     6   ar
     4     3     4   ar
     5     4     5   ar
     6     5     6   ar
     7     6     7    1
     8     7     8    1
     9     8     9    1
    10     9    10    2
    11     9    11    1
    12    11    12   ar
    13    11    28   ar
    14    12    13   ar
    15    13    14    1
    16    13    26   ar
    17    14    15    1
    18    15    16   ar
    19    15    25   ar
    20    16    17   ar
    21    17    18   ar
    22    18    19    2
    23    18    20   ar
    24    20    21   ar
    25    20    25   ar
    26    21    22   ar
    27    22    23   ar
    28    23    24   ar
    29    24    25   ar
    30    26    27   ar
    31    27    28   ar
    32    28    29    1
    33     1    30    1
    34     1    31    1
    35     1    32    1
    36     3    33    1
    37     4    34    1
    38     7    35    1
    39     7    36    1
    40    12    37    1
    41    14    38    1
    42    14    39    1
    43    17    40    1
    44    21    41    1
    45    22    42    1
    46    23    43    1
    47    24    44    1
    48    26    45    1
    49    27    46    1
@<TRIPOS>MOLECULE
../data/bude_mols_rdkit_confs2/molecule_75.pdb
 46 49 0 0 0
SMALL
GASTEIGER

@<TRIPOS>ATOM
      1  C1        -6.5320   -1.4870   -2.5100 C.3     1  UNL1       -0.0364
      2  C2        -5.8260   -0.3290   -1.9290 C.ar    1  UNL1       -0.0067
      3  C3        -6.1260    1.0070   -2.1710 C.ar    1  UNL1        0.0256
      4  N1        -5.2850    1.7830   -1.4790 N.ar    1  UNL1       -0.2841
      5  N2        -4.4750    0.9800   -0.8150 N.ar    1  UNL1       -0.1752
      6  C4        -4.7640   -0.3060   -1.0570 C.ar    1  UNL1        0.1029
      7  C5        -4.0540   -1.4640   -0.4800 C.3     1  UNL1        0.1365
      8  O1        -3.0150   -1.0980    0.3790 O.3     1  UNL1       -0.4547
      9  C6        -1.9260   -0.3440    0.0430 C.2     1  UNL1        0.3424
     10  O2        -1.8510    0.0580   -1.1500 O.2     1  UNL1       -0.2448
     11  C7        -0.9200   -0.0380    1.0360 C.ar    1  UNL1        0.0943
     12  C8         0.2020    0.7490    0.7220 C.ar    1  UNL1       -0.0414
     13  C9         1.1680    1.0550    1.6320 C.ar    1  UNL1       -0.0406
     14  C10        2.3710    1.8500    1.3980 C.3     1  UNL1        0.0171
     15  C11        3.6370    1.1280    1.3270 C.ar    1  UNL1        0.0736
     16  N3         4.4630    1.0080    2.4080 N.ar    1  UNL1       -0.1750
     17  N4         5.5790    0.3460    2.4160 N.ar    1  UNL1       -0.2425
     18  C12        6.0340   -0.2980    1.3310 C.ar    1  UNL1        0.2725
     19  O3         7.1070   -0.9150    1.3970 O.2     1  UNL1       -0.2658
     20  C13        5.2430   -0.2180    0.1900 C.ar    1  UNL1        0.0496
     21  C14        5.7140   -0.8640   -0.9170 C.ar    1  UNL1       -0.0487
     22  C15        5.0180   -0.8370   -2.0980 C.ar    1  UNL1       -0.0610
     23  C16        3.8380   -0.1360   -2.1110 C.ar    1  UNL1       -0.0611
     24  C17        3.3410    0.5270   -0.9970 C.ar    1  UNL1       -0.0521
     25  C18        4.0450    0.4940    0.1880 C.ar    1  UNL1        0.0106
     26  C19        0.9670    0.5280    2.9180 C.ar    1  UNL1       -0.0555
     27  C20       -0.1200   -0.2400    3.2410 C.ar    1  UNL1       -0.0254
     28  C21       -1.0680   -0.5300    2.3140 C.ar    1  UNL1        0.1374
     29  F1        -2.1710   -1.2920    2.5880 F       1  UNL1       -0.2046
     30 H          -7.3149   -1.1418   -3.1524 H       1  UNL1        0.0279
     31 H          -6.9509   -2.0803   -1.7242 H       1  UNL1        0.0279
     32 H          -5.8421   -2.0787   -3.0747 H       1  UNL1        0.0279
     33 H          -6.8800    1.3467   -2.7883 H       1  UNL1        0.0826
     34 H          -5.2725    2.7673   -1.4671 H       1  UNL1        0.1882
     35 H          -3.6456   -2.0459   -1.2797 H       1  UNL1        0.0765
     36 H          -4.7644   -2.0183    0.0970 H       1  UNL1        0.0765
     37 H           0.2977    1.1105   -0.2399 H       1  UNL1        0.0629
     38 H           2.4486    2.5606    2.1942 H       1  UNL1        0.0377
     39 H           2.2385    2.2761    0.4255 H       1  UNL1        0.0377
     40 H           6.1088    0.3155    3.2452 H       1  UNL1        0.1921
     41 H           6.6063   -1.3798   -0.8640 H       1  UNL1        0.0625
     42 H           5.3659   -1.3222   -2.9398 H       1  UNL1        0.0618
     43 H           3.2958   -0.1001   -2.9884 H       1  UNL1        0.0618
     44 H           2.4487    1.0422   -1.0557 H       1  UNL1        0.0624
     45 H           1.6670    0.7276    3.6496 H       1  UNL1        0.0621
     46 H          -0.2196   -0.6030    4.2019 H       1  UNL1        0.0646
@<TRIPOS>BOND
     1     1     2    1
     2     2     3   ar
     3     2     6   ar
     4     3     4   ar
     5     4     5   ar
     6     5     6   ar
     7     6     7    1
     8     7     8    1
     9     8     9    1
    10     9    10    2
    11     9    11    1
    12    11    12   ar
    13    11    28   ar
    14    12    13   ar
    15    13    14    1
    16    13    26   ar
    17    14    15    1
    18    15    16   ar
    19    15    25   ar
    20    16    17   ar
    21    17    18   ar
    22    18    19    2
    23    18    20   ar
    24    20    21   ar
    25    20    25   ar
    26    21    22   ar
    27    22    23   ar
    28    23    24   ar
    29    24    25   ar
    30    26    27   ar
    31    27    28   ar
    32    28    29    1
    33     1    30    1
    34     1    31    1
    35     1    32    1
    36     3    33    1
    37     4    34    1
    38     7    35    1
    39     7    36    1
    40    12    37    1
    41    14    38    1
    42    14    39    1
    43    17    40    1
    44    21    41    1
    45    22    42    1
    46    23    43    1
    47    24    44    1
    48    26    45    1
    49    27    46    1
