@<TRIPOS>MOLECULE
../data/bude_mols_rdkit_confs2/molecule_20.pdb
 48 50 0 0 0
SMALL
GASTEIGER

@<TRIPOS>ATOM
      1  O1         0.6410   -0.1360   -1.5250 O.2     1  UNL1       -0.2652
      2  C1         0.2110   -0.0840   -0.3510 C.2     1  UNL1        0.2990
      3  N1         1.0680    0.2940    0.7110 N.am    1  UNL1       -0.3073
      4  C2         2.4600    0.6350    0.5120 C.3     1  UNL1        0.0157
      5  C3         3.2550   -0.5010   -0.0730 C.3     1  UNL1       -0.0161
      6  C4         4.6730   -0.1570   -0.2700 C.2     1  UNL1       -0.0720
      7  C5         5.1540    1.0600    0.0570 C.2     1  UNL1       -0.0847
      8  C6         6.5950    1.2810   -0.1910 C.3     1  UNL1       -0.0345
      9  C7         7.4890    0.1740    0.2470 C.3     1  UNL1       -0.0493
     10  C8         6.8020   -1.1660    0.1770 C.3     1  UNL1       -0.0491
     11  C9         5.6770   -1.1040   -0.8330 C.3     1  UNL1       -0.0317
     12  C10       -1.1850   -0.4220   -0.1110 C.2     1  UNL1        0.2993
     13  O2        -1.6420   -0.3780    1.0580 O.2     1  UNL1       -0.2652
     14  N2        -2.0520   -0.8020   -1.1670 N.am    1  UNL1       -0.3019
     15  C11       -3.4290   -1.1290   -0.8870 C.3     1  UNL1        0.0567
     16  C12       -4.1540    0.0100   -0.2720 C.ar    1  UNL1        0.0863
     17  N3        -3.5270    1.1760   -0.0370 N.ar    1  UNL1       -0.1737
     18  N4        -4.1490    2.2010    0.5070 N.ar    1  UNL1       -0.2424
     19  C13       -5.4460    2.0800    0.8380 C.ar    1  UNL1        0.2725
     20  O3        -6.0750    3.0390    1.3610 O.2     1  UNL1       -0.2658
     21  C14       -6.1340    0.9180    0.6220 C.ar    1  UNL1        0.0496
     22  C15       -7.4690    0.7470    0.9450 C.ar    1  UNL1       -0.0487
     23  C16       -8.0820   -0.4460    0.6970 C.ar    1  UNL1       -0.0610
     24  C17       -7.4010   -1.4900    0.1290 C.ar    1  UNL1       -0.0611
     25  C18       -6.0860   -1.3550   -0.2020 C.ar    1  UNL1       -0.0520
     26  C19       -5.4760   -0.1470    0.0530 C.ar    1  UNL1        0.0118
     27 H           0.7009    0.3262    1.6239 H       1  UNL1        0.1492
     28 H           2.8863    0.9011    1.4566 H       1  UNL1        0.0465
     29 H           2.4988    1.4491   -0.1812 H       1  UNL1        0.0465
     30 H           2.8314   -0.7639   -1.0197 H       1  UNL1        0.0325
     31 H           3.2123   -1.3164    0.6185 H       1  UNL1        0.0325
     32 H           4.5506    1.7952    0.4575 H       1  UNL1        0.0572
     33 H           6.8883    2.1691    0.3288 H       1  UNL1        0.0307
     34 H           6.7069    1.3516   -1.2528 H       1  UNL1        0.0307
     35 H           7.7931    0.3542    1.2569 H       1  UNL1        0.0268
     36 H           8.3319    0.1488   -0.4116 H       1  UNL1        0.0268
     37 H           6.4044   -1.4136    1.1390 H       1  UNL1        0.0268
     38 H           7.5076   -1.9134   -0.1205 H       1  UNL1        0.0268
     39 H           6.0405   -0.7452   -1.7732 H       1  UNL1        0.0310
     40 H           5.2512   -2.0703   -1.0060 H       1  UNL1        0.0310
     41 H          -1.7143   -0.8426   -2.0909 H       1  UNL1        0.1495
     42 H          -3.4572   -1.9607   -0.2144 H       1  UNL1        0.0528
     43 H          -3.9086   -1.3659   -1.8137 H       1  UNL1        0.0528
     44 H          -3.6700    3.0456    0.6693 H       1  UNL1        0.1921
     45 H          -8.0001    1.5214    1.3731 H       1  UNL1        0.0625
     46 H          -9.0775   -0.5643    0.9419 H       1  UNL1        0.0618
     47 H          -7.8862   -2.3832   -0.0491 H       1  UNL1        0.0618
     48 H          -5.5631   -2.1345   -0.6308 H       1  UNL1        0.0624
@<TRIPOS>BOND
     1     1     2    2
     2     2     3   am
     3     2    12    1
     4     3     4    1
     5     4     5    1
     6     5     6    1
     7     6     7    2
     8     6    11    1
     9     7     8    1
    10     8     9    1
    11     9    10    1
    12    10    11    1
    13    12    13    2
    14    12    14   am
    15    14    15    1
    16    15    16    1
    17    16    17   ar
    18    16    26   ar
    19    17    18   ar
    20    18    19   ar
    21    19    20    2
    22    19    21   ar
    23    21    22   ar
    24    21    26   ar
    25    22    23   ar
    26    23    24   ar
    27    24    25   ar
    28    25    26   ar
    29     3    27    1
    30     4    28    1
    31     4    29    1
    32     5    30    1
    33     5    31    1
    34     7    32    1
    35     8    33    1
    36     8    34    1
    37     9    35    1
    38     9    36    1
    39    10    37    1
    40    10    38    1
    41    11    39    1
    42    11    40    1
    43    14    41    1
    44    15    42    1
    45    15    43    1
    46    18    44    1
    47    22    45    1
    48    23    46    1
    49    24    47    1
    50    25    48    1
@<TRIPOS>MOLECULE
../data/bude_mols_rdkit_confs2/molecule_20.pdb
 48 50 0 0 0
SMALL
GASTEIGER

@<TRIPOS>ATOM
      1  O1        -0.6770   -0.2620   -1.4530 O.2     1  UNL1       -0.2652
      2  C1        -0.2410   -0.3190   -0.2760 C.2     1  UNL1        0.2990
      3  N1        -1.1470   -0.1030    0.7910 N.am    1  UNL1       -0.3073
      4  C2        -2.5410    0.1800    0.6200 C.3     1  UNL1        0.0157
      5  C3        -3.2960   -0.9090   -0.1060 C.3     1  UNL1       -0.0161
      6  C4        -4.7120   -0.4690   -0.2010 C.2     1  UNL1       -0.0720
      7  C5        -5.2610   -0.3220   -1.3890 C.2     1  UNL1       -0.0847
      8  C6        -6.6640    0.1120   -1.6040 C.3     1  UNL1       -0.0345
      9  C7        -7.0960    0.8800   -0.3720 C.3     1  UNL1       -0.0493
     10  C8        -6.9100   -0.0660    0.8160 C.3     1  UNL1       -0.0491
     11  C9        -5.4470   -0.2140    1.0720 C.3     1  UNL1       -0.0317
     12  C10        1.1710   -0.6040   -0.0290 C.2     1  UNL1        0.2993
     13  O2         1.6130   -0.6620    1.1460 O.2     1  UNL1       -0.2652
     14  N2         2.0810   -0.8210   -1.0970 N.am    1  UNL1       -0.3019
     15  C11        3.4870   -1.1050   -0.8950 C.3     1  UNL1        0.0567
     16  C12        4.1050    0.0190   -0.1860 C.ar    1  UNL1        0.0863
     17  N3         3.3720    1.0880    0.1620 N.ar    1  UNL1       -0.1737
     18  N4         3.9130    2.1110    0.8000 N.ar    1  UNL1       -0.2424
     19  C13        5.2160    2.1100    1.1200 C.ar    1  UNL1        0.2725
     20  O3         5.7610    3.0630    1.7240 O.2     1  UNL1       -0.2658
     21  C14        6.0110    1.0390    0.7860 C.ar    1  UNL1        0.0496
     22  C15        7.3540    0.9790    1.0870 C.ar    1  UNL1       -0.0487
     23  C16        8.1450   -0.1000    0.7480 C.ar    1  UNL1       -0.0610
     24  C17        7.5670   -1.1600    0.0830 C.ar    1  UNL1       -0.0611
     25  C18        6.2210   -1.1110   -0.2240 C.ar    1  UNL1       -0.0520
     26  C19        5.4560   -0.0290    0.1230 C.ar    1  UNL1        0.0118
     27 H          -0.7961   -0.1504    1.7096 H       1  UNL1        0.1492
     28 H          -2.6356    1.0874    0.0609 H       1  UNL1        0.0465
     29 H          -2.9671    0.2578    1.5984 H       1  UNL1        0.0465
     30 H          -3.2326   -1.8267    0.4405 H       1  UNL1        0.0325
     31 H          -2.8827   -1.0760   -1.0787 H       1  UNL1        0.0325
     32 H          -4.6814   -0.5203   -2.2196 H       1  UNL1        0.0572
     33 H          -7.2937   -0.7420   -1.7417 H       1  UNL1        0.0307
     34 H          -6.7393    0.7261   -2.4770 H       1  UNL1        0.0307
     35 H          -8.1227    1.1689   -0.4575 H       1  UNL1        0.0268
     36 H          -6.5190    1.7728   -0.2501 H       1  UNL1        0.0268
     37 H          -7.3360   -1.0208    0.5885 H       1  UNL1        0.0268
     38 H          -7.3979    0.3294    1.6823 H       1  UNL1        0.0268
     39 H          -5.0757    0.6850    1.5179 H       1  UNL1        0.0310
     40 H          -5.2951   -1.0446    1.7292 H       1  UNL1        0.0310
     41 H           1.7399   -0.7763   -2.0195 H       1  UNL1        0.1495
     42 H           3.9657   -1.2379   -1.8427 H       1  UNL1        0.0528
     43 H           3.5953   -1.9994   -0.3177 H       1  UNL1        0.0528
     44 H           3.3531    2.8833    1.0435 H       1  UNL1        0.1921
     45 H           7.7858    1.7725    1.5859 H       1  UNL1        0.0625
     46 H           9.1487   -0.1129    0.9875 H       1  UNL1        0.0618
     47 H           8.1333   -1.9809   -0.1825 H       1  UNL1        0.0618
     48 H           5.7848   -1.9022   -0.7228 H       1  UNL1        0.0624
@<TRIPOS>BOND
     1     1     2    2
     2     2     3   am
     3     2    12    1
     4     3     4    1
     5     4     5    1
     6     5     6    1
     7     6     7    2
     8     6    11    1
     9     7     8    1
    10     8     9    1
    11     9    10    1
    12    10    11    1
    13    12    13    2
    14    12    14   am
    15    14    15    1
    16    15    16    1
    17    16    17   ar
    18    16    26   ar
    19    17    18   ar
    20    18    19   ar
    21    19    20    2
    22    19    21   ar
    23    21    22   ar
    24    21    26   ar
    25    22    23   ar
    26    23    24   ar
    27    24    25   ar
    28    25    26   ar
    29     3    27    1
    30     4    28    1
    31     4    29    1
    32     5    30    1
    33     5    31    1
    34     7    32    1
    35     8    33    1
    36     8    34    1
    37     9    35    1
    38     9    36    1
    39    10    37    1
    40    10    38    1
    41    11    39    1
    42    11    40    1
    43    14    41    1
    44    15    42    1
    45    15    43    1
    46    18    44    1
    47    22    45    1
    48    23    46    1
    49    24    47    1
    50    25    48    1
@<TRIPOS>MOLECULE
../data/bude_mols_rdkit_confs2/molecule_20.pdb
 48 50 0 0 0
SMALL
GASTEIGER

@<TRIPOS>ATOM
      1  O1         0.8570    0.2950   -1.2670 O.2     1  UNL1       -0.2652
      2  C1         0.3430   -0.1370   -0.2300 C.2     1  UNL1        0.2990
      3  N1         1.1360   -0.3290    0.9270 N.am    1  UNL1       -0.3073
      4  C2         2.5520   -0.0380    0.9470 C.3     1  UNL1        0.0157
      5  C3         3.2490   -0.8930   -0.0630 C.3     1  UNL1       -0.0161
      6  C4         4.7100   -0.6010   -0.0500 C.2     1  UNL1       -0.0720
      7  C5         5.3340   -0.1510   -1.1430 C.2     1  UNL1       -0.0847
      8  C6         6.7800    0.1300   -1.0990 C.3     1  UNL1       -0.0345
      9  C7         7.2800    0.6500    0.2070 C.3     1  UNL1       -0.0493
     10  C8         6.3380    0.4570    1.3650 C.3     1  UNL1       -0.0491
     11  C9         5.5220   -0.7990    1.1710 C.3     1  UNL1       -0.0317
     12  C10       -1.0960   -0.4540   -0.1890 C.2     1  UNL1        0.2993
     13  O2        -1.6200   -0.8870    0.8480 O.2     1  UNL1       -0.2652
     14  N2        -1.8930   -0.2630   -1.3450 N.am    1  UNL1       -0.3019
     15  C11       -3.3090   -0.5530   -1.3770 C.3     1  UNL1        0.0567
     16  C12       -4.0600    0.2650   -0.3710 C.ar    1  UNL1        0.0863
     17  N3        -3.4550    1.1370    0.4300 N.ar    1  UNL1       -0.1737
     18  N4        -4.1350    1.8390    1.3000 N.ar    1  UNL1       -0.2424
     19  C13       -5.4600    1.6960    1.4050 C.ar    1  UNL1        0.2725
     20  O3        -6.1310    2.3670    2.2400 O.2     1  UNL1       -0.2658
     21  C14       -6.1570    0.8100    0.6060 C.ar    1  UNL1        0.0496
     22  C15       -7.5190    0.6600    0.7110 C.ar    1  UNL1       -0.0487
     23  C16       -8.1890   -0.2260   -0.0920 C.ar    1  UNL1       -0.0610
     24  C17       -7.4500   -0.9560   -1.0030 C.ar    1  UNL1       -0.0611
     25  C18       -6.0860   -0.8100   -1.1120 C.ar    1  UNL1       -0.0520
     26  C19       -5.4050    0.0870   -0.2990 C.ar    1  UNL1        0.0118
     27 H           0.7090   -0.6721    1.7451 H       1  UNL1        0.1492
     28 H           2.9450   -0.2434    1.9208 H       1  UNL1        0.0465
     29 H           2.7083    0.9938    0.7107 H       1  UNL1        0.0465
     30 H           2.8543   -0.6867   -1.0359 H       1  UNL1        0.0325
     31 H           3.0927   -1.9236    0.1787 H       1  UNL1        0.0325
     32 H           4.8043   -0.0007   -2.0159 H       1  UNL1        0.0572
     33 H           7.0003    0.8571   -1.8524 H       1  UNL1        0.0307
     34 H           7.2724   -0.8067   -1.2571 H       1  UNL1        0.0307
     35 H           7.4647    1.6984    0.0992 H       1  UNL1        0.0268
     36 H           8.1607    0.0880    0.4380 H       1  UNL1        0.0268
     37 H           5.6807    1.2988    1.4298 H       1  UNL1        0.0268
     38 H           6.9073    0.3672    2.2665 H       1  UNL1        0.0268
     39 H           6.1688   -1.6427    1.0497 H       1  UNL1        0.0310
     40 H           4.8975   -0.9844    2.0198 H       1  UNL1        0.0310
     41 H          -1.4641    0.0819   -2.1613 H       1  UNL1        0.1495
     42 H          -3.4564   -1.5906   -1.1612 H       1  UNL1        0.0528
     43 H          -3.6795   -0.3102   -2.3510 H       1  UNL1        0.0528
     44 H          -3.6662    2.4789    1.8831 H       1  UNL1        0.1921
     45 H          -8.0427    1.2202    1.4016 H       1  UNL1        0.0625
     46 H          -9.2116   -0.3439   -0.0186 H       1  UNL1        0.0618
     47 H          -7.9338   -1.6287   -1.6181 H       1  UNL1        0.0618
     48 H          -5.5648   -1.3715   -1.8034 H       1  UNL1        0.0624
@<TRIPOS>BOND
     1     1     2    2
     2     2     3   am
     3     2    12    1
     4     3     4    1
     5     4     5    1
     6     5     6    1
     7     6     7    2
     8     6    11    1
     9     7     8    1
    10     8     9    1
    11     9    10    1
    12    10    11    1
    13    12    13    2
    14    12    14   am
    15    14    15    1
    16    15    16    1
    17    16    17   ar
    18    16    26   ar
    19    17    18   ar
    20    18    19   ar
    21    19    20    2
    22    19    21   ar
    23    21    22   ar
    24    21    26   ar
    25    22    23   ar
    26    23    24   ar
    27    24    25   ar
    28    25    26   ar
    29     3    27    1
    30     4    28    1
    31     4    29    1
    32     5    30    1
    33     5    31    1
    34     7    32    1
    35     8    33    1
    36     8    34    1
    37     9    35    1
    38     9    36    1
    39    10    37    1
    40    10    38    1
    41    11    39    1
    42    11    40    1
    43    14    41    1
    44    15    42    1
    45    15    43    1
    46    18    44    1
    47    22    45    1
    48    23    46    1
    49    24    47    1
    50    25    48    1
@<TRIPOS>MOLECULE
../data/bude_mols_rdkit_confs2/molecule_20.pdb
 48 50 0 0 0
SMALL
GASTEIGER

@<TRIPOS>ATOM
      1  O1        -0.8940   -1.2860    0.2080 O.2     1  UNL1       -0.2652
      2  C1        -0.2790   -0.2760   -0.2060 C.2     1  UNL1        0.2990
      3  N1        -0.9560    0.9460   -0.3910 N.am    1  UNL1       -0.3073
      4  C2        -2.3570    1.0940   -0.1210 C.3     1  UNL1        0.0157
      5  C3        -3.2250    0.1700   -0.9600 C.3     1  UNL1       -0.0161
      6  C4        -4.6290    0.4290   -0.5790 C.2     1  UNL1       -0.0720
      7  C5        -5.4830    0.8450   -1.4910 C.2     1  UNL1       -0.0847
      8  C6        -6.9100    1.1000   -1.0660 C.3     1  UNL1       -0.0345
      9  C7        -7.3340   -0.1090   -0.2860 C.3     1  UNL1       -0.0493
     10  C8        -6.4900   -0.2560    0.9430 C.3     1  UNL1       -0.0491
     11  C9        -5.0850    0.2280    0.8100 C.3     1  UNL1       -0.0317
     12  C10        1.1420   -0.3690   -0.4970 C.2     1  UNL1        0.2993
     13  O2         1.7760    0.6350   -0.9130 O.2     1  UNL1       -0.2652
     14  N2         1.8380   -1.5870   -0.3170 N.am    1  UNL1       -0.3019
     15  C11        3.2460   -1.6370   -0.6160 C.3     1  UNL1        0.0567
     16  C12        3.9600   -0.6770    0.2420 C.ar    1  UNL1        0.0863
     17  N3         3.3870    0.1140    1.1550 N.ar    1  UNL1       -0.1737
     18  N4         4.0470    0.9700    1.9160 N.ar    1  UNL1       -0.2424
     19  C13        5.3940    1.1090    1.8200 C.ar    1  UNL1        0.2725
     20  O3         6.0430    1.9100    2.5280 O.2     1  UNL1       -0.2658
     21  C14        6.0440    0.3300    0.9070 C.ar    1  UNL1        0.0496
     22  C15        7.4270    0.4320    0.7670 C.ar    1  UNL1       -0.0487
     23  C16        8.0350   -0.3620   -0.1560 C.ar    1  UNL1       -0.0610
     24  C17        7.3460   -1.2660   -0.9610 C.ar    1  UNL1       -0.0611
     25  C18        5.9780   -1.3640   -0.8200 C.ar    1  UNL1       -0.0520
     26  C19        5.3470   -0.5590    0.1170 C.ar    1  UNL1        0.0118
     27 H          -0.4499    1.7251   -0.7168 H       1  UNL1        0.1492
     28 H          -2.6387    2.1057   -0.3261 H       1  UNL1        0.0465
     29 H          -2.5140    0.8357    0.9054 H       1  UNL1        0.0465
     30 H          -2.9731   -0.8508   -0.7616 H       1  UNL1        0.0325
     31 H          -3.0742    0.3494   -2.0040 H       1  UNL1        0.0325
     32 H          -5.1859    0.9926   -2.4682 H       1  UNL1        0.0572
     33 H          -7.5362    1.2265   -1.9244 H       1  UNL1        0.0307
     34 H          -6.9899    1.9914   -0.4795 H       1  UNL1        0.0307
     35 H          -7.2229   -0.9803   -0.8970 H       1  UNL1        0.0268
     36 H          -8.3571    0.0056    0.0056 H       1  UNL1        0.0268
     37 H          -6.4596   -1.2938    1.2015 H       1  UNL1        0.0268
     38 H          -6.9460    0.3576    1.6916 H       1  UNL1        0.0268
     39 H          -5.0045    1.1623    1.3253 H       1  UNL1        0.0310
     40 H          -4.4622   -0.5373    1.2239 H       1  UNL1        0.0310
     41 H           1.3672   -2.3884    0.0077 H       1  UNL1        0.1495
     42 H           3.4024   -1.3831   -1.6436 H       1  UNL1        0.0528
     43 H           3.6162   -2.6244   -0.4344 H       1  UNL1        0.0528
     44 H           3.5512    1.5183    2.5662 H       1  UNL1        0.1921
     45 H           7.9731    1.0894    1.3455 H       1  UNL1        0.0625
     46 H           9.0587   -0.2907   -0.2650 H       1  UNL1        0.0618
     47 H           7.8485   -1.8497   -1.6479 H       1  UNL1        0.0618
     48 H           5.4347   -2.0227   -1.3996 H       1  UNL1        0.0624
@<TRIPOS>BOND
     1     1     2    2
     2     2     3   am
     3     2    12    1
     4     3     4    1
     5     4     5    1
     6     5     6    1
     7     6     7    2
     8     6    11    1
     9     7     8    1
    10     8     9    1
    11     9    10    1
    12    10    11    1
    13    12    13    2
    14    12    14   am
    15    14    15    1
    16    15    16    1
    17    16    17   ar
    18    16    26   ar
    19    17    18   ar
    20    18    19   ar
    21    19    20    2
    22    19    21   ar
    23    21    22   ar
    24    21    26   ar
    25    22    23   ar
    26    23    24   ar
    27    24    25   ar
    28    25    26   ar
    29     3    27    1
    30     4    28    1
    31     4    29    1
    32     5    30    1
    33     5    31    1
    34     7    32    1
    35     8    33    1
    36     8    34    1
    37     9    35    1
    38     9    36    1
    39    10    37    1
    40    10    38    1
    41    11    39    1
    42    11    40    1
    43    14    41    1
    44    15    42    1
    45    15    43    1
    46    18    44    1
    47    22    45    1
    48    23    46    1
    49    24    47    1
    50    25    48    1
@<TRIPOS>MOLECULE
../data/bude_mols_rdkit_confs2/molecule_20.pdb
 48 50 0 0 0
SMALL
GASTEIGER

@<TRIPOS>ATOM
      1  O1         0.6810    0.5540    0.3630 O.2     1  UNL1       -0.2652
      2  C1         0.4940   -0.6810    0.4760 C.2     1  UNL1        0.2990
      3  N1         1.6050   -1.5190    0.6690 N.am    1  UNL1       -0.3073
      4  C2         2.9850   -1.0960    0.7490 C.3     1  UNL1        0.0157
      5  C3         3.3740   -0.4380   -0.5280 C.3     1  UNL1       -0.0161
      6  C4         4.7910    0.0250   -0.5300 C.2     1  UNL1       -0.0720
      7  C5         5.0550    1.3140   -0.7000 C.2     1  UNL1       -0.0847
      8  C6         6.5230    1.6730   -0.6850 C.3     1  UNL1       -0.0345
      9  C7         7.2510    1.0370    0.4520 C.3     1  UNL1       -0.0493
     10  C8         6.7750   -0.3590    0.7840 C.3     1  UNL1       -0.0491
     11  C9         5.9570   -0.8750   -0.3510 C.3     1  UNL1       -0.0317
     12  C10       -0.8710   -1.2430    0.4090 C.2     1  UNL1        0.2993
     13  O2        -1.1090   -2.4680    0.5160 O.2     1  UNL1       -0.2652
     14  N2        -1.9670   -0.3660    0.2130 N.am    1  UNL1       -0.3019
     15  C11       -3.2970   -0.8810    0.1440 C.3     1  UNL1        0.0567
     16  C12       -4.2580    0.2000   -0.0600 C.ar    1  UNL1        0.0863
     17  N3        -3.8250    1.4870   -0.1560 N.ar    1  UNL1       -0.1737
     18  N4        -4.6690    2.4880   -0.3410 N.ar    1  UNL1       -0.2424
     19  C13       -6.0000    2.3270   -0.4480 C.ar    1  UNL1        0.2725
     20  O3        -6.7960    3.2880   -0.6240 O.2     1  UNL1       -0.2658
     21  C14       -6.5080    1.0540   -0.3610 C.ar    1  UNL1        0.0496
     22  C15       -7.8790    0.8600   -0.4680 C.ar    1  UNL1       -0.0487
     23  C16       -8.3290   -0.4400   -0.3730 C.ar    1  UNL1       -0.0610
     24  C17       -7.4430   -1.4910   -0.1790 C.ar    1  UNL1       -0.0611
     25  C18       -6.0850   -1.2760   -0.0750 C.ar    1  UNL1       -0.0520
     26  C19       -5.6230    0.0190   -0.1690 C.ar    1  UNL1        0.0118
     27 H           1.4273   -2.4832    0.7580 H       1  UNL1        0.1492
     28 H           3.6105   -1.9477    0.9170 H       1  UNL1        0.0465
     29 H           3.1012   -0.4049    1.5576 H       1  UNL1        0.0465
     30 H           2.7376    0.4078   -0.6847 H       1  UNL1        0.0325
     31 H           3.2702   -1.1623   -1.3087 H       1  UNL1        0.0325
     32 H           4.3132    2.0191   -0.8326 H       1  UNL1        0.0572
     33 H           6.6163    2.7357   -0.6018 H       1  UNL1        0.0307
     34 H           6.9571    1.3121   -1.5939 H       1  UNL1        0.0307
     35 H           7.1230    1.6510    1.3189 H       1  UNL1        0.0268
     36 H           8.2753    0.9519    0.1545 H       1  UNL1        0.0268
     37 H           6.1798   -0.3333    1.6728 H       1  UNL1        0.0268
     38 H           7.6168   -0.9998    0.9440 H       1  UNL1        0.0268
     39 H           6.5451   -0.8877   -1.2448 H       1  UNL1        0.0310
     40 H           5.6261   -1.8714   -0.1447 H       1  UNL1        0.0310
     41 H          -1.8107    0.6019    0.1241 H       1  UNL1        0.1495
     42 H          -3.5259   -1.3868    1.0587 H       1  UNL1        0.0528
     43 H          -3.3614   -1.5595   -0.6809 H       1  UNL1        0.0528
     44 H          -4.3035    3.4000   -0.4038 H       1  UNL1        0.1921
     45 H          -8.5284    1.6491   -0.6114 H       1  UNL1        0.0625
     46 H          -9.3398   -0.6346   -0.4472 H       1  UNL1        0.0618
     47 H          -7.8085   -2.4537   -0.1112 H       1  UNL1        0.0618
     48 H          -5.4329   -2.0627    0.0692 H       1  UNL1        0.0624
@<TRIPOS>BOND
     1     1     2    2
     2     2     3   am
     3     2    12    1
     4     3     4    1
     5     4     5    1
     6     5     6    1
     7     6     7    2
     8     6    11    1
     9     7     8    1
    10     8     9    1
    11     9    10    1
    12    10    11    1
    13    12    13    2
    14    12    14   am
    15    14    15    1
    16    15    16    1
    17    16    17   ar
    18    16    26   ar
    19    17    18   ar
    20    18    19   ar
    21    19    20    2
    22    19    21   ar
    23    21    22   ar
    24    21    26   ar
    25    22    23   ar
    26    23    24   ar
    27    24    25   ar
    28    25    26   ar
    29     3    27    1
    30     4    28    1
    31     4    29    1
    32     5    30    1
    33     5    31    1
    34     7    32    1
    35     8    33    1
    36     8    34    1
    37     9    35    1
    38     9    36    1
    39    10    37    1
    40    10    38    1
    41    11    39    1
    42    11    40    1
    43    14    41    1
    44    15    42    1
    45    15    43    1
    46    18    44    1
    47    22    45    1
    48    23    46    1
    49    24    47    1
    50    25    48    1
@<TRIPOS>MOLECULE
../data/bude_mols_rdkit_confs2/molecule_20.pdb
 48 50 0 0 0
SMALL
GASTEIGER

@<TRIPOS>ATOM
      1  O1        -1.7360   -0.4740    0.5250 O.2     1  UNL1       -0.2652
      2  C1        -0.9600   -0.8960   -0.3450 C.2     1  UNL1        0.2990
      3  N1        -1.3470   -1.9570   -1.1720 N.am    1  UNL1       -0.3073
      4  C2        -2.5850   -2.6800   -1.1820 C.3     1  UNL1        0.0157
      5  C3        -3.8310   -1.9750   -1.4940 C.3     1  UNL1       -0.0161
      6  C4        -4.3170   -0.9300   -0.5700 C.2     1  UNL1       -0.0720
      7  C5        -4.4330    0.3210   -1.0150 C.2     1  UNL1       -0.0847
      8  C6        -4.9110    1.4080   -0.1540 C.3     1  UNL1       -0.0345
      9  C7        -4.4400    1.2220    1.2560 C.3     1  UNL1       -0.0493
     10  C8        -4.6560   -0.1420    1.8040 C.3     1  UNL1       -0.0491
     11  C9        -4.7400   -1.2530    0.8140 C.3     1  UNL1       -0.0317
     12  C10        0.3660   -0.2470   -0.4730 C.2     1  UNL1        0.2993
     13  O2         1.1510   -0.6570   -1.3370 O.2     1  UNL1       -0.2652
     14  N2         0.7570    0.8210    0.3580 N.am    1  UNL1       -0.3019
     15  C11        2.0460    1.4740    0.2540 C.3     1  UNL1        0.0567
     16  C12        3.1660    0.5430    0.4760 C.ar    1  UNL1        0.0863
     17  N3         2.9920   -0.7600    0.7410 N.ar    1  UNL1       -0.1737
     18  N4         4.0080   -1.5820    0.9370 N.ar    1  UNL1       -0.2424
     19  C13        5.2900   -1.1860    0.8870 C.ar    1  UNL1        0.2725
     20  O3         6.2480   -2.0120    1.0820 O.2     1  UNL1       -0.2658
     21  C14        5.5470    0.1400    0.6190 C.ar    1  UNL1        0.0496
     22  C15        6.8450    0.5770    0.5620 C.ar    1  UNL1       -0.0487
     23  C16        7.0840    1.9050    0.2930 C.ar    1  UNL1       -0.0610
     24  C17        6.0050    2.7680    0.0870 C.ar    1  UNL1       -0.0611
     25  C18        4.7180    2.3180    0.1480 C.ar    1  UNL1       -0.0520
     26  C19        4.4670    0.9940    0.4150 C.ar    1  UNL1        0.0118
     27 H          -0.6796   -2.2454   -1.8358 H       1  UNL1        0.1492
     28 H          -2.7043   -3.1059   -0.2077 H       1  UNL1        0.0465
     29 H          -2.4709   -3.3612   -1.9992 H       1  UNL1        0.0465
     30 H          -4.6007   -2.7152   -1.5619 H       1  UNL1        0.0325
     31 H          -3.6021   -1.4368   -2.3900 H       1  UNL1        0.0325
     32 H          -4.1793    0.5308   -1.9931 H       1  UNL1        0.0572
     33 H          -5.9809    1.4201   -0.1669 H       1  UNL1        0.0307
     34 H          -4.5214    2.3331   -0.5246 H       1  UNL1        0.0307
     35 H          -4.9632    1.9184    1.8775 H       1  UNL1        0.0268
     36 H          -3.3820    1.3816    1.2465 H       1  UNL1        0.0268
     37 H          -5.5726   -0.1288    2.3558 H       1  UNL1        0.0268
     38 H          -3.7859   -0.3517    2.3904 H       1  UNL1        0.0268
     39 H          -4.1214   -2.0518    1.1664 H       1  UNL1        0.0310
     40 H          -5.7794   -1.4979    0.7460 H       1  UNL1        0.0310
     41 H           0.1242    1.1388    1.0420 H       1  UNL1        0.1495
     42 H           2.0966    2.2533    0.9855 H       1  UNL1        0.0528
     43 H           2.1361    1.8624   -0.7389 H       1  UNL1        0.0528
     44 H           3.8161   -2.5284    1.1285 H       1  UNL1        0.1921
     45 H           7.6277   -0.0773    0.7178 H       1  UNL1        0.0625
     46 H           8.0517    2.2603    0.2439 H       1  UNL1        0.0618
     47 H           6.1844    3.7640   -0.1150 H       1  UNL1        0.0618
     48 H           3.9343    2.9715   -0.0063 H       1  UNL1        0.0624
@<TRIPOS>BOND
     1     1     2    2
     2     2     3   am
     3     2    12    1
     4     3     4    1
     5     4     5    1
     6     5     6    1
     7     6     7    2
     8     6    11    1
     9     7     8    1
    10     8     9    1
    11     9    10    1
    12    10    11    1
    13    12    13    2
    14    12    14   am
    15    14    15    1
    16    15    16    1
    17    16    17   ar
    18    16    26   ar
    19    17    18   ar
    20    18    19   ar
    21    19    20    2
    22    19    21   ar
    23    21    22   ar
    24    21    26   ar
    25    22    23   ar
    26    23    24   ar
    27    24    25   ar
    28    25    26   ar
    29     3    27    1
    30     4    28    1
    31     4    29    1
    32     5    30    1
    33     5    31    1
    34     7    32    1
    35     8    33    1
    36     8    34    1
    37     9    35    1
    38     9    36    1
    39    10    37    1
    40    10    38    1
    41    11    39    1
    42    11    40    1
    43    14    41    1
    44    15    42    1
    45    15    43    1
    46    18    44    1
    47    22    45    1
    48    23    46    1
    49    24    47    1
    50    25    48    1
@<TRIPOS>MOLECULE
../data/bude_mols_rdkit_confs2/molecule_20.pdb
 48 50 0 0 0
SMALL
GASTEIGER

@<TRIPOS>ATOM
      1  O1        -0.8460   -1.0480    0.7840 O.2     1  UNL1       -0.2652
      2  C1        -0.2980   -0.2120    0.0250 C.2     1  UNL1        0.2990
      3  N1        -1.0850    0.8490   -0.4950 N.am    1  UNL1       -0.3073
      4  C2        -2.4780    1.0310   -0.2080 C.3     1  UNL1        0.0157
      5  C3        -3.3140   -0.1490   -0.6510 C.3     1  UNL1       -0.0161
      6  C4        -4.7610    0.0740   -0.3390 C.2     1  UNL1       -0.0720
      7  C5        -5.2110    1.1780    0.2490 C.2     1  UNL1       -0.0847
      8  C6        -6.6390    1.4250    0.5700 C.3     1  UNL1       -0.0345
      9  C7        -7.4810    0.2000    0.6580 C.3     1  UNL1       -0.0493
     10  C8        -6.6710   -1.0700    0.5660 C.3     1  UNL1       -0.0491
     11  C9        -5.7850   -0.9540   -0.6800 C.3     1  UNL1       -0.0317
     12  C10        1.1140   -0.3700   -0.2850 C.2     1  UNL1        0.2993
     13  O2         1.6550    0.4700   -1.0440 O.2     1  UNL1       -0.2652
     14  N2         1.9060   -1.4200    0.2250 N.am    1  UNL1       -0.3019
     15  C11        3.3220   -1.5670   -0.0940 C.3     1  UNL1        0.0567
     16  C12        4.0930   -0.3780    0.3440 C.ar    1  UNL1        0.0863
     17  N3         3.5550    0.6850    0.9500 N.ar    1  UNL1       -0.1737
     18  N4         4.3150    1.7220    1.3160 N.ar    1  UNL1       -0.2424
     19  C13        5.6400    1.7550    1.1010 C.ar    1  UNL1        0.2725
     20  O3         6.3480    2.7470    1.4540 O.2     1  UNL1       -0.2658
     21  C14        6.2520    0.6910    0.4810 C.ar    1  UNL1        0.0496
     22  C15        7.5990    0.7250    0.2610 C.ar    1  UNL1       -0.0487
     23  C16        8.2070   -0.3370   -0.3570 C.ar    1  UNL1       -0.0610
     24  C17        7.4600   -1.4400   -0.7570 C.ar    1  UNL1       -0.0611
     25  C18        6.0960   -1.4380   -0.5170 C.ar    1  UNL1       -0.0520
     26  C19        5.4490   -0.3840    0.1030 C.ar    1  UNL1        0.0118
     27 H          -0.6472    1.5002   -1.0895 H       1  UNL1        0.1492
     28 H          -2.8225    1.9071   -0.7165 H       1  UNL1        0.0465
     29 H          -2.5840    1.1277    0.8523 H       1  UNL1        0.0465
     30 H          -2.9773   -1.0277   -0.1417 H       1  UNL1        0.0325
     31 H          -3.2066   -0.2658   -1.7092 H       1  UNL1        0.0325
     32 H          -4.5254    1.9082    0.4976 H       1  UNL1        0.0572
     33 H          -7.0472    2.0552   -0.1923 H       1  UNL1        0.0307
     34 H          -6.6559    1.8722    1.5419 H       1  UNL1        0.0307
     35 H          -8.1896    0.2131   -0.1436 H       1  UNL1        0.0268
     36 H          -7.9642    0.2073    1.6127 H       1  UNL1        0.0268
     37 H          -7.3221   -1.9142    0.4754 H       1  UNL1        0.0268
     38 H          -6.0750   -1.2046    1.4444 H       1  UNL1        0.0268
     39 H          -5.3173   -1.8918   -0.8962 H       1  UNL1        0.0310
     40 H          -6.3496   -0.6828   -1.5475 H       1  UNL1        0.0310
     41 H           1.4857   -2.0812    0.8211 H       1  UNL1        0.1495
     42 H           3.4318   -1.6847   -1.1518 H       1  UNL1        0.0528
     43 H           3.6994   -2.4259    0.4205 H       1  UNL1        0.0528
     44 H           3.8874    2.4899    1.7596 H       1  UNL1        0.1921
     45 H           8.1545    1.5427    0.5572 H       1  UNL1        0.0625
     46 H           9.2248   -0.3180   -0.5264 H       1  UNL1        0.0618
     47 H           7.9123   -2.2424   -1.2225 H       1  UNL1        0.0618
     48 H           5.5399   -2.2556   -0.8125 H       1  UNL1        0.0624
@<TRIPOS>BOND
     1     1     2    2
     2     2     3   am
     3     2    12    1
     4     3     4    1
     5     4     5    1
     6     5     6    1
     7     6     7    2
     8     6    11    1
     9     7     8    1
    10     8     9    1
    11     9    10    1
    12    10    11    1
    13    12    13    2
    14    12    14   am
    15    14    15    1
    16    15    16    1
    17    16    17   ar
    18    16    26   ar
    19    17    18   ar
    20    18    19   ar
    21    19    20    2
    22    19    21   ar
    23    21    22   ar
    24    21    26   ar
    25    22    23   ar
    26    23    24   ar
    27    24    25   ar
    28    25    26   ar
    29     3    27    1
    30     4    28    1
    31     4    29    1
    32     5    30    1
    33     5    31    1
    34     7    32    1
    35     8    33    1
    36     8    34    1
    37     9    35    1
    38     9    36    1
    39    10    37    1
    40    10    38    1
    41    11    39    1
    42    11    40    1
    43    14    41    1
    44    15    42    1
    45    15    43    1
    46    18    44    1
    47    22    45    1
    48    23    46    1
    49    24    47    1
    50    25    48    1
@<TRIPOS>MOLECULE
../data/bude_mols_rdkit_confs2/molecule_20.pdb
 48 50 0 0 0
SMALL
GASTEIGER

@<TRIPOS>ATOM
      1  O1         0.6710   -0.3350   -0.6410 O.2     1  UNL1       -0.2652
      2  C1         0.4890    0.9080   -0.5860 C.2     1  UNL1        0.2990
      3  N1         1.6050    1.7530   -0.6810 N.am    1  UNL1       -0.3073
      4  C2         2.9220    1.2130   -0.8340 C.3     1  UNL1        0.0157
      5  C3         3.3440    0.3320    0.3080 C.3     1  UNL1       -0.0161
      6  C4         4.7130   -0.2090    0.1220 C.2     1  UNL1       -0.0720
      7  C5         5.4860    0.0430   -0.9170 C.2     1  UNL1       -0.0847
      8  C6         6.8370   -0.5910   -0.9310 C.3     1  UNL1       -0.0345
      9  C7         7.4830   -0.2550    0.4140 C.3     1  UNL1       -0.0493
     10  C8         6.6600   -0.7420    1.5610 C.3     1  UNL1       -0.0491
     11  C9         5.2470   -1.0960    1.1840 C.3     1  UNL1       -0.0317
     12  C10       -0.8740    1.3750   -0.4270 C.2     1  UNL1        0.2993
     13  O2        -1.0790    2.6030   -0.3710 O.2     1  UNL1       -0.2652
     14  N2        -1.9570    0.4810   -0.3370 N.am    1  UNL1       -0.3019
     15  C11       -3.3250    0.9370   -0.1790 C.3     1  UNL1        0.0567
     16  C12       -4.2240   -0.2390   -0.1160 C.ar    1  UNL1        0.0863
     17  N3        -3.7850   -1.5000   -0.1990 N.ar    1  UNL1       -0.1737
     18  N4        -4.6180   -2.5270   -0.1400 N.ar    1  UNL1       -0.2424
     19  C13       -5.9470   -2.3740    0.0060 C.ar    1  UNL1        0.2725
     20  O3        -6.7080   -3.3810    0.0590 O.2     1  UNL1       -0.2658
     21  C14       -6.4830   -1.1040    0.1000 C.ar    1  UNL1        0.0496
     22  C15       -7.8390   -0.8850    0.2500 C.ar    1  UNL1       -0.0487
     23  C16       -8.3560    0.3910    0.3420 C.ar    1  UNL1       -0.0610
     24  C17       -7.4710    1.4490    0.2770 C.ar    1  UNL1       -0.0611
     25  C18       -6.1210    1.2290    0.1270 C.ar    1  UNL1       -0.0520
     26  C19       -5.5930   -0.0440    0.0350 C.ar    1  UNL1        0.0118
     27 H           1.4809    2.7289   -0.6420 H       1  UNL1        0.1492
     28 H           3.6146    2.0251   -0.9093 H       1  UNL1        0.0465
     29 H           2.9130    0.6050   -1.7144 H       1  UNL1        0.0465
     30 H           2.6578   -0.4855    0.3844 H       1  UNL1        0.0325
     31 H           3.3433    0.9254    1.1984 H       1  UNL1        0.0325
     32 H           5.1699    0.6526   -1.6873 H       1  UNL1        0.0572
     33 H           7.4239   -0.1947   -1.7331 H       1  UNL1        0.0307
     34 H           6.7686   -1.6489   -1.0760 H       1  UNL1        0.0307
     35 H           7.5906    0.8068    0.4910 H       1  UNL1        0.0268
     36 H           8.4348   -0.7419    0.4569 H       1  UNL1        0.0268
     37 H           6.6288    0.0266    2.3048 H       1  UNL1        0.0268
     38 H           7.1220   -1.6381    1.9193 H       1  UNL1        0.0268
     39 H           5.2268   -2.1062    0.8320 H       1  UNL1        0.0310
     40 H           4.6344   -0.9748    2.0529 H       1  UNL1        0.0310
     41 H          -1.7803   -0.4864   -0.3828 H       1  UNL1        0.1495
     42 H          -3.5964    1.5512   -1.0121 H       1  UNL1        0.0528
     43 H          -3.4131    1.5067    0.7224 H       1  UNL1        0.0528
     44 H          -4.2510   -3.4382   -0.2055 H       1  UNL1        0.1921
     45 H          -8.4790   -1.6934    0.2942 H       1  UNL1        0.0625
     46 H          -9.3695    0.5492    0.4555 H       1  UNL1        0.0618
     47 H          -7.8262    2.4158    0.3417 H       1  UNL1        0.0618
     48 H          -5.4838    2.0395    0.0819 H       1  UNL1        0.0624
@<TRIPOS>BOND
     1     1     2    2
     2     2     3   am
     3     2    12    1
     4     3     4    1
     5     4     5    1
     6     5     6    1
     7     6     7    2
     8     6    11    1
     9     7     8    1
    10     8     9    1
    11     9    10    1
    12    10    11    1
    13    12    13    2
    14    12    14   am
    15    14    15    1
    16    15    16    1
    17    16    17   ar
    18    16    26   ar
    19    17    18   ar
    20    18    19   ar
    21    19    20    2
    22    19    21   ar
    23    21    22   ar
    24    21    26   ar
    25    22    23   ar
    26    23    24   ar
    27    24    25   ar
    28    25    26   ar
    29     3    27    1
    30     4    28    1
    31     4    29    1
    32     5    30    1
    33     5    31    1
    34     7    32    1
    35     8    33    1
    36     8    34    1
    37     9    35    1
    38     9    36    1
    39    10    37    1
    40    10    38    1
    41    11    39    1
    42    11    40    1
    43    14    41    1
    44    15    42    1
    45    15    43    1
    46    18    44    1
    47    22    45    1
    48    23    46    1
    49    24    47    1
    50    25    48    1
@<TRIPOS>MOLECULE
../data/bude_mols_rdkit_confs2/molecule_20.pdb
 48 50 0 0 0
SMALL
GASTEIGER

@<TRIPOS>ATOM
      1  O1        -0.9790   -1.5680   -0.1630 O.2     1  UNL1       -0.2652
      2  C1        -0.3860   -0.7510    0.5790 C.2     1  UNL1        0.2990
      3  N1        -1.2050    0.2190    1.2180 N.am    1  UNL1       -0.3073
      4  C2        -2.6110    0.3180    1.0730 C.3     1  UNL1        0.0157
      5  C3        -3.0890    0.5550   -0.3270 C.3     1  UNL1       -0.0161
      6  C4        -4.5570    0.6670   -0.4650 C.2     1  UNL1       -0.0720
      7  C5        -5.3410    0.5650    0.5930 C.2     1  UNL1       -0.0847
      8  C6        -6.8340    0.6790    0.4450 C.3     1  UNL1       -0.0345
      9  C7        -7.2180   -0.0810   -0.7750 C.3     1  UNL1       -0.0493
     10  C8        -6.4770    0.2760   -2.0090 C.3     1  UNL1       -0.0491
     11  C9        -5.1340    0.8930   -1.7940 C.3     1  UNL1       -0.0317
     12  C10        1.0700   -0.7890    0.7800 C.2     1  UNL1        0.2993
     13  O2         1.5810    0.0700    1.5420 O.2     1  UNL1       -0.2652
     14  N2         1.8890   -1.7450    0.1530 N.am    1  UNL1       -0.3019
     15  C11        3.3260   -1.8120    0.3280 C.3     1  UNL1        0.0567
     16  C12        4.0070   -0.5860   -0.0970 C.ar    1  UNL1        0.0863
     17  N3         3.3750    0.4850   -0.5950 N.ar    1  UNL1       -0.1737
     18  N4         3.9670    1.5910   -0.9800 N.ar    1  UNL1       -0.2424
     19  C13        5.2940    1.7040   -0.8900 C.ar    1  UNL1        0.2725
     20  O3         5.8900    2.7750   -1.2610 O.2     1  UNL1       -0.2658
     21  C14        6.0400    0.6600   -0.3910 C.ar    1  UNL1        0.0496
     22  C15        7.4210    0.7670   -0.2930 C.ar    1  UNL1       -0.0487
     23  C16        8.1400   -0.2960    0.2100 C.ar    1  UNL1       -0.0610
     24  C17        7.4630   -1.4460    0.6050 C.ar    1  UNL1       -0.0611
     25  C18        6.0960   -1.5660    0.5130 C.ar    1  UNL1       -0.0520
     26  C19        5.3820   -0.4900    0.0050 C.ar    1  UNL1        0.0118
     27 H          -0.7615    0.8720    1.8063 H       1  UNL1        0.1492
     28 H          -2.9509    1.1298    1.6815 H       1  UNL1        0.0465
     29 H          -3.0091   -0.6304    1.3679 H       1  UNL1        0.0465
     30 H          -2.7577   -0.2605   -0.9354 H       1  UNL1        0.0325
     31 H          -2.6828    1.4971   -0.6310 H       1  UNL1        0.0325
     32 H          -4.9278    0.4064    1.5253 H       1  UNL1        0.0572
     33 H          -7.1139    1.7063    0.3394 H       1  UNL1        0.0307
     34 H          -7.3308    0.2863    1.3075 H       1  UNL1        0.0307
     35 H          -8.2591    0.0884   -0.9549 H       1  UNL1        0.0268
     36 H          -6.9762   -1.1035   -0.5725 H       1  UNL1        0.0268
     37 H          -7.0740    0.9696   -2.5635 H       1  UNL1        0.0268
     38 H          -6.2992   -0.6454   -2.5231 H       1  UNL1        0.0268
     39 H          -4.4618    0.4883   -2.5215 H       1  UNL1        0.0310
     40 H          -5.2709    1.9502   -1.8862 H       1  UNL1        0.0310
     41 H           1.4619   -2.4062   -0.4383 H       1  UNL1        0.1495
     42 H           3.7030   -2.6303   -0.2492 H       1  UNL1        0.0528
     43 H           3.5179   -1.9418    1.3726 H       1  UNL1        0.0528
     44 H           3.4324    2.3375   -1.3352 H       1  UNL1        0.1921
     45 H           7.9019    1.6296   -0.5923 H       1  UNL1        0.0625
     46 H           9.1672   -0.2398    0.2926 H       1  UNL1        0.0618
     47 H           8.0070   -2.2383    0.9810 H       1  UNL1        0.0618
     48 H           5.6163   -2.4293    0.8124 H       1  UNL1        0.0624
@<TRIPOS>BOND
     1     1     2    2
     2     2     3   am
     3     2    12    1
     4     3     4    1
     5     4     5    1
     6     5     6    1
     7     6     7    2
     8     6    11    1
     9     7     8    1
    10     8     9    1
    11     9    10    1
    12    10    11    1
    13    12    13    2
    14    12    14   am
    15    14    15    1
    16    15    16    1
    17    16    17   ar
    18    16    26   ar
    19    17    18   ar
    20    18    19   ar
    21    19    20    2
    22    19    21   ar
    23    21    22   ar
    24    21    26   ar
    25    22    23   ar
    26    23    24   ar
    27    24    25   ar
    28    25    26   ar
    29     3    27    1
    30     4    28    1
    31     4    29    1
    32     5    30    1
    33     5    31    1
    34     7    32    1
    35     8    33    1
    36     8    34    1
    37     9    35    1
    38     9    36    1
    39    10    37    1
    40    10    38    1
    41    11    39    1
    42    11    40    1
    43    14    41    1
    44    15    42    1
    45    15    43    1
    46    18    44    1
    47    22    45    1
    48    23    46    1
    49    24    47    1
    50    25    48    1
@<TRIPOS>MOLECULE
../data/bude_mols_rdkit_confs2/molecule_20.pdb
 48 50 0 0 0
SMALL
GASTEIGER

@<TRIPOS>ATOM
      1  O1         0.7590   -0.4940    0.6900 O.2     1  UNL1       -0.2652
      2  C1         0.5130    0.6610    0.2920 C.2     1  UNL1        0.2990
      3  N1         1.5670    1.5830    0.0960 N.am    1  UNL1       -0.3073
      4  C2         2.9510    1.2930    0.3230 C.3     1  UNL1        0.0157
      5  C3         3.3590    0.1530   -0.5860 C.3     1  UNL1       -0.0161
      6  C4         4.8010   -0.1240   -0.3290 C.2     1  UNL1       -0.0720
      7  C5         5.1930   -1.3020    0.0950 C.2     1  UNL1       -0.0847
      8  C6         6.6120   -1.6550    0.3730 C.3     1  UNL1       -0.0345
      9  C7         7.5350   -0.4960    0.1830 C.3     1  UNL1       -0.0493
     10  C8         7.0800    0.4210   -0.9350 C.3     1  UNL1       -0.0491
     11  C9         5.7480    1.0150   -0.5860 C.3     1  UNL1       -0.0317
     12  C10       -0.8490    1.0790    0.0250 C.2     1  UNL1        0.2993
     13  O2        -1.0640    2.2500   -0.3750 O.2     1  UNL1       -0.2652
     14  N2        -1.9770    0.2530    0.1830 N.am    1  UNL1       -0.3019
     15  C11       -3.3340    0.6840   -0.0880 C.3     1  UNL1        0.0567
     16  C12       -4.3200   -0.3850    0.1620 C.ar    1  UNL1        0.0863
     17  N3        -3.9980   -1.6200    0.5940 N.ar    1  UNL1       -0.1737
     18  N4        -4.9260   -2.5570    0.8080 N.ar    1  UNL1       -0.2424
     19  C13       -6.2320   -2.3450    0.6120 C.ar    1  UNL1        0.2725
     20  O3        -7.1140   -3.2320    0.8140 O.2     1  UNL1       -0.2658
     21  C14       -6.6280   -1.1120    0.1730 C.ar    1  UNL1        0.0496
     22  C15       -7.9650   -0.8520   -0.0420 C.ar    1  UNL1       -0.0487
     23  C16       -8.3320    0.4020   -0.4850 C.ar    1  UNL1       -0.0610
     24  C17       -7.4060    1.3980   -0.7190 C.ar    1  UNL1       -0.0611
     25  C18       -6.0790    1.1040   -0.4930 C.ar    1  UNL1       -0.0520
     26  C19       -5.6580   -0.1340   -0.0500 C.ar    1  UNL1        0.0118
     27 H           1.3334    2.4863   -0.2181 H       1  UNL1        0.1492
     28 H           3.0976    1.0102    1.3445 H       1  UNL1        0.0465
     29 H           3.5455    2.1581    0.1151 H       1  UNL1        0.0465
     30 H           3.2162    0.4314   -1.6092 H       1  UNL1        0.0325
     31 H           2.7658   -0.7164   -0.3931 H       1  UNL1        0.0325
     32 H           4.4744   -2.0274    0.2448 H       1  UNL1        0.0572
     33 H           6.9067   -2.4413   -0.2902 H       1  UNL1        0.0307
     34 H           6.6778   -1.9600    1.3965 H       1  UNL1        0.0307
     35 H           8.5107   -0.8674   -0.0515 H       1  UNL1        0.0268
     36 H           7.5418    0.0708    1.0905 H       1  UNL1        0.0268
     37 H           6.9936   -0.1393   -1.8425 H       1  UNL1        0.0268
     38 H           7.7961    1.2052   -1.0658 H       1  UNL1        0.0268
     39 H           5.8366    1.6218    0.2908 H       1  UNL1        0.0310
     40 H           5.3891    1.6321   -1.3831 H       1  UNL1        0.0310
     41 H          -1.8366   -0.6700    0.4953 H       1  UNL1        0.1495
     42 H          -3.4022    0.9825   -1.1132 H       1  UNL1        0.0528
     43 H          -3.5576    1.4970    0.5707 H       1  UNL1        0.0528
     44 H          -4.6356   -3.4430    1.1241 H       1  UNL1        0.1921
     45 H          -8.6766   -1.5805    0.1250 H       1  UNL1        0.0625
     46 H          -9.3315    0.6016   -0.6466 H       1  UNL1        0.0618
     47 H          -7.6972    2.3305   -1.0517 H       1  UNL1        0.0618
     48 H          -5.3727    1.8373   -0.6613 H       1  UNL1        0.0624
@<TRIPOS>BOND
     1     1     2    2
     2     2     3   am
     3     2    12    1
     4     3     4    1
     5     4     5    1
     6     5     6    1
     7     6     7    2
     8     6    11    1
     9     7     8    1
    10     8     9    1
    11     9    10    1
    12    10    11    1
    13    12    13    2
    14    12    14   am
    15    14    15    1
    16    15    16    1
    17    16    17   ar
    18    16    26   ar
    19    17    18   ar
    20    18    19   ar
    21    19    20    2
    22    19    21   ar
    23    21    22   ar
    24    21    26   ar
    25    22    23   ar
    26    23    24   ar
    27    24    25   ar
    28    25    26   ar
    29     3    27    1
    30     4    28    1
    31     4    29    1
    32     5    30    1
    33     5    31    1
    34     7    32    1
    35     8    33    1
    36     8    34    1
    37     9    35    1
    38     9    36    1
    39    10    37    1
    40    10    38    1
    41    11    39    1
    42    11    40    1
    43    14    41    1
    44    15    42    1
    45    15    43    1
    46    18    44    1
    47    22    45    1
    48    23    46    1
    49    24    47    1
    50    25    48    1
@<TRIPOS>MOLECULE
../data/bude_mols_rdkit_confs2/molecule_20.pdb
 48 50 0 0 0
SMALL
GASTEIGER

@<TRIPOS>ATOM
      1  O1         0.8180    1.4480   -0.8440 O.2     1  UNL1       -0.2652
      2  C1         0.3000    1.0530    0.2150 C.2     1  UNL1        0.2990
      3  N1         1.1180    0.5780    1.2740 N.am    1  UNL1       -0.3073
      4  C2         2.5530    0.5190    1.2060 C.3     1  UNL1        0.0157
      5  C3         3.0390   -0.3660    0.0790 C.3     1  UNL1       -0.0161
      6  C4         4.5190   -0.4190    0.0190 C.2     1  UNL1       -0.0720
      7  C5         5.1130   -1.5970    0.1580 C.2     1  UNL1       -0.0847
      8  C6         6.5860   -1.7910    0.1180 C.3     1  UNL1       -0.0345
      9  C7         7.2700   -0.4710    0.4440 C.3     1  UNL1       -0.0493
     10  C8         6.7260    0.5330   -0.5820 C.3     1  UNL1       -0.0491
     11  C9         5.2950    0.8270   -0.1930 C.3     1  UNL1       -0.0317
     12  C10       -1.1670    1.0940    0.3350 C.2     1  UNL1        0.2993
     13  O2        -1.7360    0.7050    1.3880 O.2     1  UNL1       -0.2652
     14  N2        -1.9830    1.5700   -0.7250 N.am    1  UNL1       -0.3019
     15  C11       -3.4170    1.6300   -0.6610 C.3     1  UNL1        0.0567
     16  C12       -4.0140    0.2800   -0.4400 C.ar    1  UNL1        0.0863
     17  N3        -3.2240   -0.8020   -0.3290 N.ar    1  UNL1       -0.1737
     18  N4        -3.7010   -2.0170   -0.1340 N.ar    1  UNL1       -0.2424
     19  C13       -5.0200   -2.2220   -0.0380 C.ar    1  UNL1        0.2725
     20  O3        -5.4340   -3.3920    0.1480 O.2     1  UNL1       -0.2658
     21  C14       -5.9040   -1.1700   -0.1400 C.ar    1  UNL1        0.0496
     22  C15       -7.2520   -1.4090   -0.0380 C.ar    1  UNL1       -0.0487
     23  C16       -8.1170   -0.3370   -0.1450 C.ar    1  UNL1       -0.0610
     24  C17       -7.6080    0.9270   -0.3480 C.ar    1  UNL1       -0.0611
     25  C18       -6.2440    1.1510   -0.4490 C.ar    1  UNL1       -0.0520
     26  C19       -5.3730    0.0870   -0.3440 C.ar    1  UNL1        0.0118
     27 H           0.6784    0.2723    2.1002 H       1  UNL1        0.1492
     28 H           2.9257    0.1330    2.1317 H       1  UNL1        0.0465
     29 H           2.9128    1.5098    1.0224 H       1  UNL1        0.0465
     30 H           2.6685    0.0191   -0.8480 H       1  UNL1        0.0325
     31 H           2.6779   -1.3576    0.2557 H       1  UNL1        0.0325
     32 H           4.5174   -2.4273    0.3024 H       1  UNL1        0.0572
     33 H           6.8786   -2.1147   -0.8590 H       1  UNL1        0.0307
     34 H           6.8720   -2.5324    0.8345 H       1  UNL1        0.0307
     35 H           8.3315   -0.5657    0.3489 H       1  UNL1        0.0268
     36 H           7.0752   -0.1589    1.4488 H       1  UNL1        0.0268
     37 H           6.7608    0.1105   -1.5644 H       1  UNL1        0.0268
     38 H           7.3123    1.4281   -0.5899 H       1  UNL1        0.0268
     39 H           5.2916    1.3964    0.7129 H       1  UNL1        0.0310
     40 H           4.8374    1.3742   -0.9905 H       1  UNL1        0.0310
     41 H          -1.5414    1.8760   -1.5500 H       1  UNL1        0.1495
     42 H          -3.7894    2.0278   -1.5819 H       1  UNL1        0.0528
     43 H          -3.6894    2.2555    0.1633 H       1  UNL1        0.0528
     44 H          -3.0816   -2.7785   -0.0586 H       1  UNL1        0.1921
     45 H          -7.6100   -2.3648    0.1147 H       1  UNL1        0.0625
     46 H          -9.1363   -0.4820   -0.0734 H       1  UNL1        0.0618
     47 H          -8.2572    1.7253   -0.4267 H       1  UNL1        0.0618
     48 H          -5.8833    2.1058   -0.6015 H       1  UNL1        0.0624
@<TRIPOS>BOND
     1     1     2    2
     2     2     3   am
     3     2    12    1
     4     3     4    1
     5     4     5    1
     6     5     6    1
     7     6     7    2
     8     6    11    1
     9     7     8    1
    10     8     9    1
    11     9    10    1
    12    10    11    1
    13    12    13    2
    14    12    14   am
    15    14    15    1
    16    15    16    1
    17    16    17   ar
    18    16    26   ar
    19    17    18   ar
    20    18    19   ar
    21    19    20    2
    22    19    21   ar
    23    21    22   ar
    24    21    26   ar
    25    22    23   ar
    26    23    24   ar
    27    24    25   ar
    28    25    26   ar
    29     3    27    1
    30     4    28    1
    31     4    29    1
    32     5    30    1
    33     5    31    1
    34     7    32    1
    35     8    33    1
    36     8    34    1
    37     9    35    1
    38     9    36    1
    39    10    37    1
    40    10    38    1
    41    11    39    1
    42    11    40    1
    43    14    41    1
    44    15    42    1
    45    15    43    1
    46    18    44    1
    47    22    45    1
    48    23    46    1
    49    24    47    1
    50    25    48    1
@<TRIPOS>MOLECULE
../data/bude_mols_rdkit_confs2/molecule_20.pdb
 48 50 0 0 0
SMALL
GASTEIGER

@<TRIPOS>ATOM
      1  O1         0.7690   -0.1850   -0.4350 O.2     1  UNL1       -0.2652
      2  C1         0.5990    1.0120   -0.7790 C.2     1  UNL1        0.2990
      3  N1         1.7390    1.7930   -1.0440 N.am    1  UNL1       -0.3073
      4  C2         3.1090    1.3540   -0.9570 C.3     1  UNL1        0.0157
      5  C3         3.4060    0.9280    0.4400 C.3     1  UNL1       -0.0161
      6  C4         4.8120    0.4630    0.6130 C.2     1  UNL1       -0.0720
      7  C5         5.7160    0.4260   -0.3580 C.2     1  UNL1       -0.0847
      8  C6         7.0820   -0.0740    0.0110 C.3     1  UNL1       -0.0345
      9  C7         6.8750   -1.4190    0.6750 C.3     1  UNL1       -0.0493
     10  C8         5.8440   -1.3970    1.7540 C.3     1  UNL1       -0.0491
     11  C9         5.2570    0.0060    1.9570 C.3     1  UNL1       -0.0317
     12  C10       -0.7680    1.5660   -0.8960 C.2     1  UNL1        0.2993
     13  O2        -0.9740    2.7440   -1.2340 O.2     1  UNL1       -0.2652
     14  N2        -1.8430    0.6930   -0.6060 N.am    1  UNL1       -0.3019
     15  C11       -3.2290    1.0970   -0.6790 C.3     1  UNL1        0.0567
     16  C12       -4.1360   -0.0210   -0.3230 C.ar    1  UNL1        0.0863
     17  N3        -3.7080   -1.2480    0.0220 N.ar    1  UNL1       -0.1737
     18  N4        -4.5690   -2.2200    0.3340 N.ar    1  UNL1       -0.2424
     19  C13       -5.8950   -2.0350    0.3230 C.ar    1  UNL1        0.2725
     20  O3        -6.6870   -2.9670    0.6210 O.2     1  UNL1       -0.2658
     21  C14       -6.4110   -0.7850   -0.0250 C.ar    1  UNL1        0.0496
     22  C15       -7.7740   -0.5780   -0.0410 C.ar    1  UNL1       -0.0487
     23  C16       -8.2670    0.6680   -0.3890 C.ar    1  UNL1       -0.0610
     24  C17       -7.3510    1.6510   -0.7060 C.ar    1  UNL1       -0.0611
     25  C18       -5.9910    1.4310   -0.6860 C.ar    1  UNL1       -0.0520
     26  C19       -5.4980    0.1890   -0.3400 C.ar    1  UNL1        0.0118
     27 H           1.5865    2.7273   -1.3143 H       1  UNL1        0.1492
     28 H           3.7594    2.1584   -1.2306 H       1  UNL1        0.0465
     29 H           3.2624    0.5297   -1.6217 H       1  UNL1        0.0465
     30 H           2.7460    0.1274    0.7014 H       1  UNL1        0.0325
     31 H           3.2665    1.7787    1.0739 H       1  UNL1        0.0325
     32 H           5.4907    0.7262   -1.3193 H       1  UNL1        0.0572
     33 H           7.5549    0.6054    0.6890 H       1  UNL1        0.0307
     34 H           7.7122   -0.1572   -0.8497 H       1  UNL1        0.0307
     35 H           7.8048   -1.7332    1.1012 H       1  UNL1        0.0268
     36 H           6.5268   -2.0928   -0.0798 H       1  UNL1        0.0268
     37 H           6.2946   -1.7191    2.6695 H       1  UNL1        0.0268
     38 H           5.0477   -2.0506    1.4647 H       1  UNL1        0.0268
     39 H           4.4264   -0.0324    2.6304 H       1  UNL1        0.0310
     40 H           5.9775    0.6748    2.3796 H       1  UNL1        0.0310
     41 H          -1.6374   -0.2329   -0.3421 H       1  UNL1        0.1495
     42 H          -3.4463    1.4180   -1.6763 H       1  UNL1        0.0528
     43 H          -3.3855    1.8937    0.0179 H       1  UNL1        0.0528
     44 H          -4.2157   -3.1051    0.5812 H       1  UNL1        0.1921
     45 H          -8.4204   -1.3443    0.2040 H       1  UNL1        0.0625
     46 H          -9.2817    0.8550   -0.4106 H       1  UNL1        0.0618
     47 H          -7.6983    2.5868   -0.9681 H       1  UNL1        0.0618
     48 H          -5.3410    2.1947   -0.9297 H       1  UNL1        0.0624
@<TRIPOS>BOND
     1     1     2    2
     2     2     3   am
     3     2    12    1
     4     3     4    1
     5     4     5    1
     6     5     6    1
     7     6     7    2
     8     6    11    1
     9     7     8    1
    10     8     9    1
    11     9    10    1
    12    10    11    1
    13    12    13    2
    14    12    14   am
    15    14    15    1
    16    15    16    1
    17    16    17   ar
    18    16    26   ar
    19    17    18   ar
    20    18    19   ar
    21    19    20    2
    22    19    21   ar
    23    21    22   ar
    24    21    26   ar
    25    22    23   ar
    26    23    24   ar
    27    24    25   ar
    28    25    26   ar
    29     3    27    1
    30     4    28    1
    31     4    29    1
    32     5    30    1
    33     5    31    1
    34     7    32    1
    35     8    33    1
    36     8    34    1
    37     9    35    1
    38     9    36    1
    39    10    37    1
    40    10    38    1
    41    11    39    1
    42    11    40    1
    43    14    41    1
    44    15    42    1
    45    15    43    1
    46    18    44    1
    47    22    45    1
    48    23    46    1
    49    24    47    1
    50    25    48    1
@<TRIPOS>MOLECULE
../data/bude_mols_rdkit_confs2/molecule_20.pdb
 48 50 0 0 0
SMALL
GASTEIGER

@<TRIPOS>ATOM
      1  O1         1.0430   -1.0660   -2.2210 O.2     1  UNL1       -0.2652
      2  C1         0.6250   -1.1030   -1.0380 C.2     1  UNL1        0.2990
      3  N1         1.2750   -1.9500   -0.1180 N.am    1  UNL1       -0.3073
      4  C2         2.3870   -2.7730   -0.4590 C.3     1  UNL1        0.0157
      5  C3         3.6010   -2.0920   -0.9680 C.3     1  UNL1       -0.0161
      6  C4         4.2330   -1.1220   -0.0330 C.2     1  UNL1       -0.0720
      7  C5         5.4950   -1.2890    0.3900 C.2     1  UNL1       -0.0847
      8  C6         6.1910   -0.3660    1.3180 C.3     1  UNL1       -0.0345
      9  C7         5.6680    1.0320    1.0260 C.3     1  UNL1       -0.0493
     10  C8         4.1920    0.9930    1.3170 C.3     1  UNL1       -0.0491
     11  C9         3.4540    0.0360    0.4220 C.3     1  UNL1       -0.0317
     12  C10       -0.5120   -0.2610   -0.6920 C.2     1  UNL1        0.2993
     13  O2        -0.9190   -0.3090    0.4980 O.2     1  UNL1       -0.2652
     14  N2        -1.1680    0.5860   -1.5940 N.am    1  UNL1       -0.3019
     15  C11       -2.2890    1.3790   -1.1420 C.3     1  UNL1        0.0567
     16  C12       -3.3960    0.5320   -0.6270 C.ar    1  UNL1        0.0863
     17  N3        -3.3390   -0.8110   -0.5940 N.ar    1  UNL1       -0.1737
     18  N4        -4.3420   -1.5360   -0.1290 N.ar    1  UNL1       -0.2424
     19  C13       -5.4770   -0.9910    0.3400 C.ar    1  UNL1        0.2725
     20  O3        -6.4330   -1.6790    0.7830 O.2     1  UNL1       -0.2658
     21  C14       -5.6100    0.3690    0.3400 C.ar    1  UNL1        0.0496
     22  C15       -6.7510    0.9910    0.8080 C.ar    1  UNL1       -0.0487
     23  C16       -6.8110    2.3630    0.7760 C.ar    1  UNL1       -0.0610
     24  C17       -5.7650    3.1340    0.2900 C.ar    1  UNL1       -0.0611
     25  C18       -4.6230    2.5220   -0.1790 C.ar    1  UNL1       -0.0520
     26  C19       -4.5440    1.1300   -0.1540 C.ar    1  UNL1        0.0118
     27 H           0.9434   -1.9743    0.8087 H       1  UNL1        0.1492
     28 H           2.0614   -3.4579   -1.2138 H       1  UNL1        0.0465
     29 H           2.6894   -3.2249    0.4626 H       1  UNL1        0.0465
     30 H           3.3331   -1.5638   -1.8591 H       1  UNL1        0.0325
     31 H           4.3259   -2.8633   -1.1242 H       1  UNL1        0.0325
     32 H           6.0144   -2.1124    0.0476 H       1  UNL1        0.0572
     33 H           7.2474   -0.4056    1.1527 H       1  UNL1        0.0307
     34 H           6.0088   -0.6379    2.3367 H       1  UNL1        0.0307
     35 H           5.8380    1.2857    0.0005 H       1  UNL1        0.0268
     36 H           6.1652    1.7684    1.6221 H       1  UNL1        0.0268
     37 H           3.7886    1.9741    1.1772 H       1  UNL1        0.0268
     38 H           4.0680    0.6568    2.3252 H       1  UNL1        0.0268
     39 H           2.6022   -0.3280    0.9575 H       1  UNL1        0.0310
     40 H           3.2014    0.5883   -0.4589 H       1  UNL1        0.0310
     41 H          -0.8676    0.6410   -2.5299 H       1  UNL1        0.1495
     42 H          -2.6527    1.9625   -1.9618 H       1  UNL1        0.0528
     43 H          -1.9512    2.0048   -0.3425 H       1  UNL1        0.0528
     44 H          -4.2535   -2.5165   -0.1263 H       1  UNL1        0.1921
     45 H          -7.5412    0.4371    1.1737 H       1  UNL1        0.0625
     46 H          -7.6603    2.8347    1.1242 H       1  UNL1        0.0618
     47 H          -5.8420    4.1631    0.2798 H       1  UNL1        0.0618
     48 H          -3.8384    3.0850   -0.5431 H       1  UNL1        0.0624
@<TRIPOS>BOND
     1     1     2    2
     2     2     3   am
     3     2    12    1
     4     3     4    1
     5     4     5    1
     6     5     6    1
     7     6     7    2
     8     6    11    1
     9     7     8    1
    10     8     9    1
    11     9    10    1
    12    10    11    1
    13    12    13    2
    14    12    14   am
    15    14    15    1
    16    15    16    1
    17    16    17   ar
    18    16    26   ar
    19    17    18   ar
    20    18    19   ar
    21    19    20    2
    22    19    21   ar
    23    21    22   ar
    24    21    26   ar
    25    22    23   ar
    26    23    24   ar
    27    24    25   ar
    28    25    26   ar
    29     3    27    1
    30     4    28    1
    31     4    29    1
    32     5    30    1
    33     5    31    1
    34     7    32    1
    35     8    33    1
    36     8    34    1
    37     9    35    1
    38     9    36    1
    39    10    37    1
    40    10    38    1
    41    11    39    1
    42    11    40    1
    43    14    41    1
    44    15    42    1
    45    15    43    1
    46    18    44    1
    47    22    45    1
    48    23    46    1
    49    24    47    1
    50    25    48    1
@<TRIPOS>MOLECULE
../data/bude_mols_rdkit_confs2/molecule_20.pdb
 48 50 0 0 0
SMALL
GASTEIGER

@<TRIPOS>ATOM
      1  O1         0.3730    0.0340    1.2570 O.2     1  UNL1       -0.2652
      2  C1         0.2900   -0.1320    0.0210 C.2     1  UNL1        0.2990
      3  N1         1.4780   -0.2580   -0.7470 N.am    1  UNL1       -0.3073
      4  C2         2.8020   -0.1980   -0.1410 C.3     1  UNL1        0.0157
      5  C3         3.8190   -0.3630   -1.2200 C.3     1  UNL1       -0.0161
      6  C4         5.1860   -0.3160   -0.6930 C.2     1  UNL1       -0.0720
      7  C5         5.4040   -0.1480    0.5860 C.2     1  UNL1       -0.0847
      8  C6         6.8170   -0.1100    1.0550 C.3     1  UNL1       -0.0345
      9  C7         7.6970    0.7420    0.1720 C.3     1  UNL1       -0.0493
     10  C8         7.4210    0.5820   -1.2790 C.3     1  UNL1       -0.0491
     11  C9         6.3720   -0.4590   -1.5860 C.3     1  UNL1       -0.0317
     12  C10       -1.0400   -0.1910   -0.5840 C.2     1  UNL1        0.2993
     13  O2        -1.1380   -0.3590   -1.8280 O.2     1  UNL1       -0.2652
     14  N2        -2.2300   -0.0700    0.1580 N.am    1  UNL1       -0.3019
     15  C11       -3.5510   -0.1280   -0.4390 C.3     1  UNL1        0.0567
     16  C12       -4.5650    0.0270    0.5690 C.ar    1  UNL1        0.0863
     17  N3        -4.2190    0.1960    1.8570 N.ar    1  UNL1       -0.1737
     18  N4        -5.1200    0.3440    2.8310 N.ar    1  UNL1       -0.2424
     19  C13       -6.4420    0.3320    2.5730 C.ar    1  UNL1        0.2725
     20  O3        -7.2620    0.4740    3.5090 O.2     1  UNL1       -0.2658
     21  C14       -6.8830    0.1640    1.2810 C.ar    1  UNL1        0.0496
     22  C15       -8.2070    0.1410    0.9380 C.ar    1  UNL1       -0.0487
     23  C16       -8.6000   -0.0300   -0.3710 C.ar    1  UNL1       -0.0610
     24  C17       -7.6490   -0.1790   -1.3420 C.ar    1  UNL1       -0.0611
     25  C18       -6.3230   -0.1540   -0.9920 C.ar    1  UNL1       -0.0520
     26  C19       -5.9260    0.0150    0.3050 C.ar    1  UNL1        0.0118
     27 H           1.4048   -0.3901   -1.7198 H       1  UNL1        0.1492
     28 H           2.9067   -0.9834    0.5780 H       1  UNL1        0.0465
     29 H           2.9387    0.7407    0.3540 H       1  UNL1        0.0465
     30 H           3.6963    0.4239   -1.9346 H       1  UNL1        0.0325
     31 H           3.6704   -1.3210   -1.6727 H       1  UNL1        0.0325
     32 H           4.6206   -0.0449    1.2498 H       1  UNL1        0.0572
     33 H           7.2027   -1.1080    1.0631 H       1  UNL1        0.0307
     34 H           6.8230    0.3223    2.0338 H       1  UNL1        0.0307
     35 H           8.7171    0.4748    0.3533 H       1  UNL1        0.0268
     36 H           7.4923    1.7629    0.4185 H       1  UNL1        0.0268
     37 H           8.3304    0.2992   -1.7667 H       1  UNL1        0.0268
     38 H           7.0436    1.5194   -1.6307 H       1  UNL1        0.0268
     39 H           6.0578   -0.3474   -2.6027 H       1  UNL1        0.0310
     40 H           6.8001   -1.4263   -1.4251 H       1  UNL1        0.0310
     41 H          -2.1625    0.0606    1.1315 H       1  UNL1        0.1495
     42 H          -3.6775   -1.0736   -0.9236 H       1  UNL1        0.0528
     43 H          -3.6451    0.6658   -1.1503 H       1  UNL1        0.0528
     44 H          -4.8114    0.4645    3.7581 H       1  UNL1        0.1921
     45 H          -8.9234    0.2537    1.6723 H       1  UNL1        0.0625
     46 H          -9.6023   -0.0455   -0.6164 H       1  UNL1        0.0618
     47 H          -7.9259   -0.3089   -2.3276 H       1  UNL1        0.0618
     48 H          -5.6068   -0.2656   -1.7266 H       1  UNL1        0.0624
@<TRIPOS>BOND
     1     1     2    2
     2     2     3   am
     3     2    12    1
     4     3     4    1
     5     4     5    1
     6     5     6    1
     7     6     7    2
     8     6    11    1
     9     7     8    1
    10     8     9    1
    11     9    10    1
    12    10    11    1
    13    12    13    2
    14    12    14   am
    15    14    15    1
    16    15    16    1
    17    16    17   ar
    18    16    26   ar
    19    17    18   ar
    20    18    19   ar
    21    19    20    2
    22    19    21   ar
    23    21    22   ar
    24    21    26   ar
    25    22    23   ar
    26    23    24   ar
    27    24    25   ar
    28    25    26   ar
    29     3    27    1
    30     4    28    1
    31     4    29    1
    32     5    30    1
    33     5    31    1
    34     7    32    1
    35     8    33    1
    36     8    34    1
    37     9    35    1
    38     9    36    1
    39    10    37    1
    40    10    38    1
    41    11    39    1
    42    11    40    1
    43    14    41    1
    44    15    42    1
    45    15    43    1
    46    18    44    1
    47    22    45    1
    48    23    46    1
    49    24    47    1
    50    25    48    1
@<TRIPOS>MOLECULE
../data/bude_mols_rdkit_confs2/molecule_20.pdb
 48 50 0 0 0
SMALL
GASTEIGER

@<TRIPOS>ATOM
      1  O1         0.6400    0.6070    2.4350 O.2     1  UNL1       -0.2652
      2  C1         0.2240    0.0710    1.3880 C.2     1  UNL1        0.2990
      3  N1         1.1680   -0.1620    0.3500 N.am    1  UNL1       -0.3073
      4  C2         2.5560    0.1830    0.4480 C.3     1  UNL1        0.0157
      5  C3         3.2390   -0.2140   -0.8410 C.3     1  UNL1       -0.0161
      6  C4         4.6730    0.0970   -0.8470 C.2     1  UNL1       -0.0720
      7  C5         5.2500    0.6680    0.2040 C.2     1  UNL1       -0.0847
      8  C6         6.7290    0.9350    0.0690 C.3     1  UNL1       -0.0345
      9  C7         7.4220   -0.3350   -0.4200 C.3     1  UNL1       -0.0493
     10  C8         6.8210   -0.8380   -1.6910 C.3     1  UNL1       -0.0491
     11  C9         5.5050   -0.2200   -2.0260 C.3     1  UNL1       -0.0317
     12  C10       -1.1680   -0.3140    1.2000 C.2     1  UNL1        0.2993
     13  O2        -1.5330   -0.8500    0.1250 O.2     1  UNL1       -0.2652
     14  N2        -2.1630   -0.1130    2.1870 N.am    1  UNL1       -0.3019
     15  C11       -3.5530   -0.4900    2.0170 C.3     1  UNL1        0.0567
     16  C12       -4.1680    0.2120    0.8600 C.ar    1  UNL1        0.0863
     17  N3        -3.5210    1.0790    0.0800 N.ar    1  UNL1       -0.1737
     18  N4        -4.1150    1.6890   -0.9530 N.ar    1  UNL1       -0.2424
     19  C13       -5.3880    1.4340   -1.2210 C.ar    1  UNL1        0.2725
     20  O3        -5.9350    2.0110   -2.1910 O.2     1  UNL1       -0.2658
     21  C14       -6.1020    0.5500   -0.4500 C.ar    1  UNL1        0.0496
     22  C15       -7.4350    0.3030   -0.7570 C.ar    1  UNL1       -0.0487
     23  C16       -8.1050   -0.5810    0.0360 C.ar    1  UNL1       -0.0610
     24  C17       -7.5040   -1.2190    1.1050 C.ar    1  UNL1       -0.0611
     25  C18       -6.1970   -0.9530    1.3760 C.ar    1  UNL1       -0.0520
     26  C19       -5.4940   -0.0670    0.5970 C.ar    1  UNL1        0.0118
     27 H           0.8509   -0.5833   -0.4814 H       1  UNL1        0.1492
     28 H           3.0012   -0.3398    1.2686 H       1  UNL1        0.0465
     29 H           2.6625    1.2351    0.6114 H       1  UNL1        0.0465
     30 H           2.7728    0.3093   -1.6495 H       1  UNL1        0.0325
     31 H           3.1401   -1.2745   -0.9432 H       1  UNL1        0.0325
     32 H           4.7221    0.9128    1.0563 H       1  UNL1        0.0572
     33 H           7.1303    1.2192    1.0193 H       1  UNL1        0.0307
     34 H           6.8904    1.7271   -0.6320 H       1  UNL1        0.0307
     35 H           7.3290   -1.0917    0.3308 H       1  UNL1        0.0268
     36 H           8.4499   -0.1034   -0.6060 H       1  UNL1        0.0268
     37 H           6.6835   -1.8955   -1.6028 H       1  UNL1        0.0268
     38 H           7.4961   -0.5747   -2.4782 H       1  UNL1        0.0268
     39 H           5.6863    0.6871   -2.5637 H       1  UNL1        0.0310
     40 H           4.9629   -0.9395   -2.6033 H       1  UNL1        0.0310
     41 H          -1.8962    0.3064    3.0368 H       1  UNL1        0.1495
     42 H          -4.0934   -0.2368    2.9051 H       1  UNL1        0.0528
     43 H          -3.5961   -1.5432    1.8334 H       1  UNL1        0.0528
     44 H          -3.6093    2.3235   -1.5106 H       1  UNL1        0.1921
     45 H          -7.8985    0.7695   -1.5524 H       1  UNL1        0.0625
     46 H          -9.0964   -0.7810   -0.1692 H       1  UNL1        0.0618
     47 H          -8.0365   -1.8846    1.6868 H       1  UNL1        0.0618
     48 H          -5.7321   -1.4193    2.1706 H       1  UNL1        0.0624
@<TRIPOS>BOND
     1     1     2    2
     2     2     3   am
     3     2    12    1
     4     3     4    1
     5     4     5    1
     6     5     6    1
     7     6     7    2
     8     6    11    1
     9     7     8    1
    10     8     9    1
    11     9    10    1
    12    10    11    1
    13    12    13    2
    14    12    14   am
    15    14    15    1
    16    15    16    1
    17    16    17   ar
    18    16    26   ar
    19    17    18   ar
    20    18    19   ar
    21    19    20    2
    22    19    21   ar
    23    21    22   ar
    24    21    26   ar
    25    22    23   ar
    26    23    24   ar
    27    24    25   ar
    28    25    26   ar
    29     3    27    1
    30     4    28    1
    31     4    29    1
    32     5    30    1
    33     5    31    1
    34     7    32    1
    35     8    33    1
    36     8    34    1
    37     9    35    1
    38     9    36    1
    39    10    37    1
    40    10    38    1
    41    11    39    1
    42    11    40    1
    43    14    41    1
    44    15    42    1
    45    15    43    1
    46    18    44    1
    47    22    45    1
    48    23    46    1
    49    24    47    1
    50    25    48    1
@<TRIPOS>MOLECULE
../data/bude_mols_rdkit_confs2/molecule_20.pdb
 48 50 0 0 0
SMALL
GASTEIGER

@<TRIPOS>ATOM
      1  O1        -0.8910   -1.4970   -1.7780 O.2     1  UNL1       -0.2652
      2  C1        -0.9000   -0.2570   -1.7690 C.2     1  UNL1        0.2990
      3  N1        -2.0520    0.4240   -2.2360 N.am    1  UNL1       -0.3073
      4  C2        -3.2190   -0.2690   -2.7220 C.3     1  UNL1        0.0157
      5  C3        -3.8500   -1.0930   -1.6640 C.3     1  UNL1       -0.0161
      6  C4        -4.3840   -0.2800   -0.5710 C.2     1  UNL1       -0.0720
      7  C5        -5.7270   -0.3480   -0.3140 C.2     1  UNL1       -0.0847
      8  C6        -6.2260    0.4900    0.7990 C.3     1  UNL1       -0.0345
      9  C7        -5.4210    0.1110    2.0340 C.3     1  UNL1       -0.0493
     10  C8        -3.9500    0.2280    1.7830 C.3     1  UNL1       -0.0491
     11  C9        -3.6510    0.6210    0.3240 C.3     1  UNL1       -0.0317
     12  C10        0.2330    0.5040   -1.2960 C.2     1  UNL1        0.2993
     13  O2         0.2290    1.7780   -1.2850 O.2     1  UNL1       -0.2652
     14  N2         1.4320   -0.0990   -0.8090 N.am    1  UNL1       -0.3019
     15  C11        2.5610    0.6760   -0.3370 C.3     1  UNL1        0.0567
     16  C12        3.6290   -0.2080    0.0930 C.ar    1  UNL1        0.0863
     17  N3         3.4410   -1.5470    0.0020 N.ar    1  UNL1       -0.1737
     18  N4         4.3270   -2.4430    0.3580 N.ar    1  UNL1       -0.2424
     19  C13        5.5390   -2.0970    0.8590 C.ar    1  UNL1        0.2725
     20  O3         6.3950   -2.9310    1.2030 O.2     1  UNL1       -0.2658
     21  C14        5.7930   -0.7590    0.9770 C.ar    1  UNL1        0.0496
     22  C15        7.0010   -0.3150    1.4770 C.ar    1  UNL1       -0.0487
     23  C16        7.2580    1.0300    1.5960 C.ar    1  UNL1       -0.0610
     24  C17        6.3010    1.9670    1.2130 C.ar    1  UNL1       -0.0611
     25  C18        5.0860    1.5330    0.7090 C.ar    1  UNL1       -0.0520
     26  C19        4.8440    0.1860    0.5960 C.ar    1  UNL1        0.0118
     27 H          -2.0554    1.4085   -2.2282 H       1  UNL1        0.1492
     28 H          -2.9312   -0.9063   -3.5319 H       1  UNL1        0.0465
     29 H          -3.9309    0.4626   -3.0427 H       1  UNL1        0.0465
     30 H          -3.1169   -1.7639   -1.2673 H       1  UNL1        0.0325
     31 H          -4.6670   -1.6238   -2.1063 H       1  UNL1        0.0325
     32 H          -6.3569   -0.9507   -0.8662 H       1  UNL1        0.0572
     33 H          -7.2658    0.2999    0.9651 H       1  UNL1        0.0307
     34 H          -6.1152    1.5303    0.5743 H       1  UNL1        0.0307
     35 H          -5.6493   -0.8994    2.3020 H       1  UNL1        0.0268
     36 H          -5.6823    0.7817    2.8257 H       1  UNL1        0.0268
     37 H          -3.4868   -0.7140    1.9904 H       1  UNL1        0.0268
     38 H          -3.5624    0.9944    2.4212 H       1  UNL1        0.0268
     39 H          -3.9636    1.6299    0.1526 H       1  UNL1        0.0310
     40 H          -2.6006    0.5430    0.1358 H       1  UNL1        0.0310
     41 H           1.4939   -1.0814   -0.7934 H       1  UNL1        0.1495
     42 H           2.2524    1.2849    0.4870 H       1  UNL1        0.0528
     43 H           2.9183    1.2946   -1.1336 H       1  UNL1        0.0528
     44 H           4.1066   -3.3974    0.2589 H       1  UNL1        0.1921
     45 H           7.7179   -0.9996    1.7641 H       1  UNL1        0.0625
     46 H           8.1654    1.3476    1.9713 H       1  UNL1        0.0618
     47 H           6.4957    2.9764    1.3040 H       1  UNL1        0.0618
     48 H           4.3684    2.2164    0.4207 H       1  UNL1        0.0624
@<TRIPOS>BOND
     1     1     2    2
     2     2     3   am
     3     2    12    1
     4     3     4    1
     5     4     5    1
     6     5     6    1
     7     6     7    2
     8     6    11    1
     9     7     8    1
    10     8     9    1
    11     9    10    1
    12    10    11    1
    13    12    13    2
    14    12    14   am
    15    14    15    1
    16    15    16    1
    17    16    17   ar
    18    16    26   ar
    19    17    18   ar
    20    18    19   ar
    21    19    20    2
    22    19    21   ar
    23    21    22   ar
    24    21    26   ar
    25    22    23   ar
    26    23    24   ar
    27    24    25   ar
    28    25    26   ar
    29     3    27    1
    30     4    28    1
    31     4    29    1
    32     5    30    1
    33     5    31    1
    34     7    32    1
    35     8    33    1
    36     8    34    1
    37     9    35    1
    38     9    36    1
    39    10    37    1
    40    10    38    1
    41    11    39    1
    42    11    40    1
    43    14    41    1
    44    15    42    1
    45    15    43    1
    46    18    44    1
    47    22    45    1
    48    23    46    1
    49    24    47    1
    50    25    48    1
@<TRIPOS>MOLECULE
../data/bude_mols_rdkit_confs2/molecule_20.pdb
 48 50 0 0 0
SMALL
GASTEIGER

@<TRIPOS>ATOM
      1  O1        -1.7700    1.7080   -1.1970 O.2     1  UNL1       -0.2652
      2  C1        -1.0580    1.9320   -0.2000 C.2     1  UNL1        0.2990
      3  N1        -1.6550    2.3610    1.0040 N.am    1  UNL1       -0.3073
      4  C2        -3.0350    2.5320    1.2260 C.3     1  UNL1        0.0157
      5  C3        -3.8690    1.3310    1.3760 C.3     1  UNL1       -0.0161
      6  C4        -3.9540    0.2560    0.4320 C.2     1  UNL1       -0.0720
      7  C5        -5.1130    0.0010   -0.2170 C.2     1  UNL1       -0.0847
      8  C6        -5.2050   -1.1080   -1.1900 C.3     1  UNL1       -0.0345
      9  C7        -4.5050   -2.3540   -0.7690 C.3     1  UNL1       -0.0493
     10  C8        -3.5530   -2.1180    0.3930 C.3     1  UNL1       -0.0491
     11  C9        -2.8880   -0.7580    0.1500 C.3     1  UNL1       -0.0317
     12  C10        0.3850    1.7620   -0.2450 C.2     1  UNL1        0.2993
     13  O2         1.0810    1.9930    0.7710 O.2     1  UNL1       -0.2652
     14  N2         1.0630    1.3300   -1.4290 N.am    1  UNL1       -0.3019
     15  C11        2.4770    1.1520   -1.5120 C.3     1  UNL1        0.0567
     16  C12        2.9830    0.1370   -0.5440 C.ar    1  UNL1        0.0863
     17  N3         2.1750   -0.5200    0.2990 N.ar    1  UNL1       -0.1737
     18  N4         2.6580   -1.4210    1.1520 N.ar    1  UNL1       -0.2424
     19  C13        3.9610   -1.7220    1.2180 C.ar    1  UNL1        0.2725
     20  O3         4.4100   -2.5750    2.0270 O.2     1  UNL1       -0.2658
     21  C14        4.8630   -1.0800    0.3720 C.ar    1  UNL1        0.0496
     22  C15        6.2080   -1.3690    0.4170 C.ar    1  UNL1       -0.0487
     23  C16        7.0840   -0.7240   -0.4280 C.ar    1  UNL1       -0.0610
     24  C17        6.5640    0.2060   -1.3030 C.ar    1  UNL1       -0.0611
     25  C18        5.2160    0.4850   -1.3370 C.ar    1  UNL1       -0.0520
     26  C19        4.3290   -0.1510   -0.5010 C.ar    1  UNL1        0.0118
     27 H          -1.0524    2.5587    1.7570 H       1  UNL1        0.1492
     28 H          -3.4233    3.0862    0.3972 H       1  UNL1        0.0465
     29 H          -3.0921    3.0148    2.1792 H       1  UNL1        0.0465
     30 H          -4.8701    1.6929    1.4841 H       1  UNL1        0.0325
     31 H          -3.3518    0.8407    2.1741 H       1  UNL1        0.0325
     32 H          -5.9419    0.5869   -0.0309 H       1  UNL1        0.0572
     33 H          -4.7770   -0.7793   -2.1139 H       1  UNL1        0.0307
     34 H          -6.2427   -1.3542   -1.2761 H       1  UNL1        0.0307
     35 H          -3.9466   -2.7321   -1.5997 H       1  UNL1        0.0268
     36 H          -5.2479   -3.0531   -0.4461 H       1  UNL1        0.0268
     37 H          -2.8126   -2.8898    0.4255 H       1  UNL1        0.0268
     38 H          -4.0757   -2.1290    1.3266 H       1  UNL1        0.0268
     39 H          -2.0574   -0.6230    0.8109 H       1  UNL1        0.0310
     40 H          -2.5068   -0.6713   -0.8460 H       1  UNL1        0.0310
     41 H           0.5238    1.1451   -2.2317 H       1  UNL1        0.1495
     42 H           2.9532    2.0882   -1.3077 H       1  UNL1        0.0528
     43 H           2.7031    0.8021   -2.4976 H       1  UNL1        0.0528
     44 H           2.0337   -1.8832    1.7569 H       1  UNL1        0.1921
     45 H           6.5612   -2.0711    1.0859 H       1  UNL1        0.0625
     46 H           8.0950   -0.9299   -0.4068 H       1  UNL1        0.0618
     47 H           7.1989    0.7039   -1.9465 H       1  UNL1        0.0618
     48 H           4.8634    1.1877   -2.0055 H       1  UNL1        0.0624
@<TRIPOS>BOND
     1     1     2    2
     2     2     3   am
     3     2    12    1
     4     3     4    1
     5     4     5    1
     6     5     6    1
     7     6     7    2
     8     6    11    1
     9     7     8    1
    10     8     9    1
    11     9    10    1
    12    10    11    1
    13    12    13    2
    14    12    14   am
    15    14    15    1
    16    15    16    1
    17    16    17   ar
    18    16    26   ar
    19    17    18   ar
    20    18    19   ar
    21    19    20    2
    22    19    21   ar
    23    21    22   ar
    24    21    26   ar
    25    22    23   ar
    26    23    24   ar
    27    24    25   ar
    28    25    26   ar
    29     3    27    1
    30     4    28    1
    31     4    29    1
    32     5    30    1
    33     5    31    1
    34     7    32    1
    35     8    33    1
    36     8    34    1
    37     9    35    1
    38     9    36    1
    39    10    37    1
    40    10    38    1
    41    11    39    1
    42    11    40    1
    43    14    41    1
    44    15    42    1
    45    15    43    1
    46    18    44    1
    47    22    45    1
    48    23    46    1
    49    24    47    1
    50    25    48    1
@<TRIPOS>MOLECULE
../data/bude_mols_rdkit_confs2/molecule_20.pdb
 48 50 0 0 0
SMALL
GASTEIGER

@<TRIPOS>ATOM
      1  O1        -0.4610    1.0000   -0.8310 O.2     1  UNL1       -0.2652
      2  C1        -0.2670    0.0640    0.0210 C.2     1  UNL1        0.2990
      3  N1        -1.2110    0.0910    1.0990 N.am    1  UNL1       -0.3073
      4  C2        -2.1650    1.1610    1.1500 C.3     1  UNL1        0.0157
      5  C3        -3.2160    1.2500    0.1550 C.3     1  UNL1       -0.0161
      6  C4        -4.3910    0.3930    0.2560 C.2     1  UNL1       -0.0720
      7  C5        -4.7820   -0.4690   -0.6610 C.2     1  UNL1       -0.0847
      8  C6        -6.0390   -1.2390   -0.3070 C.3     1  UNL1       -0.0345
      9  C7        -7.1360   -0.2830    0.0560 C.3     1  UNL1       -0.0493
     10  C8        -6.6630    0.8640    0.9440 C.3     1  UNL1       -0.0491
     11  C9        -5.3160    0.4670    1.4640 C.3     1  UNL1       -0.0317
     12  C10        0.8520   -0.8850   -0.1400 C.2     1  UNL1        0.2993
     13  O2         0.9540   -1.9070    0.5410 O.2     1  UNL1       -0.2652
     14  N2         1.7900   -0.5010   -1.1080 N.am    1  UNL1       -0.3019
     15  C11        3.0210   -1.0770   -1.4780 C.3     1  UNL1        0.0567
     16  C12        4.0360   -1.1200   -0.3850 C.ar    1  UNL1        0.0863
     17  N3         4.0560   -2.0280    0.6000 N.ar    1  UNL1       -0.1737
     18  N4         5.1060   -2.1220    1.4330 N.ar    1  UNL1       -0.2424
     19  C13        6.1790   -1.3190    1.3240 C.ar    1  UNL1        0.2725
     20  O3         7.1840   -1.4130    2.1180 O.2     1  UNL1       -0.2658
     21  C14        6.2210   -0.3580    0.3350 C.ar    1  UNL1        0.0496
     22  C15        7.2460    0.5520    0.2570 C.ar    1  UNL1       -0.0487
     23  C16        7.1830    1.5850   -0.6900 C.ar    1  UNL1       -0.0610
     24  C17        6.1110    1.6790   -1.5250 C.ar    1  UNL1       -0.0611
     25  C18        5.0630    0.7610   -1.4650 C.ar    1  UNL1       -0.0520
     26  C19        5.1280   -0.2590   -0.5310 C.ar    1  UNL1        0.0118
     27 H          -1.2048   -0.6102    1.7901 H       1  UNL1        0.1492
     28 H          -1.6082    2.0729    1.0920 H       1  UNL1        0.0465
     29 H          -2.7020    0.9655    2.0546 H       1  UNL1        0.0465
     30 H          -2.7630    1.0425   -0.7919 H       1  UNL1        0.0325
     31 H          -3.6143    2.2316    0.3057 H       1  UNL1        0.0325
     32 H          -4.2737   -0.6085   -1.5482 H       1  UNL1        0.0572
     33 H          -5.8391   -1.8823    0.5243 H       1  UNL1        0.0307
     34 H          -6.3443   -1.8230   -1.1500 H       1  UNL1        0.0307
     35 H          -7.8997   -0.8230    0.5757 H       1  UNL1        0.0268
     36 H          -7.4974    0.1474   -0.8545 H       1  UNL1        0.0268
     37 H          -7.3450    1.0094    1.7555 H       1  UNL1        0.0268
     38 H          -6.6131    1.7828    0.3978 H       1  UNL1        0.0268
     39 H          -4.9582    1.1973    2.1594 H       1  UNL1        0.0310
     40 H          -5.3599   -0.4716    1.9759 H       1  UNL1        0.0310
     41 H           1.5477    0.3075   -1.6147 H       1  UNL1        0.1495
     42 H           3.4263   -0.5081   -2.2886 H       1  UNL1        0.0528
     43 H           2.8149   -2.0930   -1.7428 H       1  UNL1        0.0528
     44 H           5.0892   -2.8006    2.1461 H       1  UNL1        0.1921
     45 H           8.0571    0.4766    0.8906 H       1  UNL1        0.0625
     46 H           7.9489    2.2737   -0.7540 H       1  UNL1        0.0618
     47 H           6.0736    2.4448   -2.2158 H       1  UNL1        0.0618
     48 H           4.2560    0.8402   -2.1033 H       1  UNL1        0.0624
@<TRIPOS>BOND
     1     1     2    2
     2     2     3   am
     3     2    12    1
     4     3     4    1
     5     4     5    1
     6     5     6    1
     7     6     7    2
     8     6    11    1
     9     7     8    1
    10     8     9    1
    11     9    10    1
    12    10    11    1
    13    12    13    2
    14    12    14   am
    15    14    15    1
    16    15    16    1
    17    16    17   ar
    18    16    26   ar
    19    17    18   ar
    20    18    19   ar
    21    19    20    2
    22    19    21   ar
    23    21    22   ar
    24    21    26   ar
    25    22    23   ar
    26    23    24   ar
    27    24    25   ar
    28    25    26   ar
    29     3    27    1
    30     4    28    1
    31     4    29    1
    32     5    30    1
    33     5    31    1
    34     7    32    1
    35     8    33    1
    36     8    34    1
    37     9    35    1
    38     9    36    1
    39    10    37    1
    40    10    38    1
    41    11    39    1
    42    11    40    1
    43    14    41    1
    44    15    42    1
    45    15    43    1
    46    18    44    1
    47    22    45    1
    48    23    46    1
    49    24    47    1
    50    25    48    1
@<TRIPOS>MOLECULE
../data/bude_mols_rdkit_confs2/molecule_20.pdb
 48 50 0 0 0
SMALL
GASTEIGER

@<TRIPOS>ATOM
      1  O1         0.7760    0.6240    0.0420 O.2     1  UNL1       -0.2652
      2  C1         0.5240   -0.2790   -0.8110 C.2     1  UNL1        0.2990
      3  N1         1.6080   -0.9150   -1.4710 N.am    1  UNL1       -0.3073
      4  C2         2.9900   -0.5990   -1.2330 C.3     1  UNL1        0.0157
      5  C3         3.4090   -0.8310    0.2190 C.3     1  UNL1       -0.0161
      6  C4         4.8460   -0.4630    0.2960 C.2     1  UNL1       -0.0720
      7  C5         5.7020   -1.3950    0.6710 C.2     1  UNL1       -0.0847
      8  C6         7.1820   -1.1010    0.7740 C.3     1  UNL1       -0.0345
      9  C7         7.2990    0.3150    1.2570 C.3     1  UNL1       -0.0493
     10  C8         6.5940    1.3100    0.4100 C.3     1  UNL1       -0.0491
     11  C9         5.2320    0.9030   -0.0450 C.3     1  UNL1       -0.0317
     12  C10       -0.8580   -0.6380   -1.0910 C.2     1  UNL1        0.2993
     13  O2        -1.0760   -1.5340   -1.9380 O.2     1  UNL1       -0.2652
     14  N2        -1.9630   -0.0270   -0.4530 N.am    1  UNL1       -0.3019
     15  C11       -3.3410   -0.4000   -0.7460 C.3     1  UNL1        0.0567
     16  C12       -4.2910    0.4000    0.0640 C.ar    1  UNL1        0.0863
     17  N3        -3.8810    1.3340    0.9400 N.ar    1  UNL1       -0.1737
     18  N4        -4.7630    2.0270    1.6440 N.ar    1  UNL1       -0.2424
     19  C13       -6.0960    1.8600    1.5460 C.ar    1  UNL1        0.2725
     20  O3        -6.8980    2.5560    2.2500 O.2     1  UNL1       -0.2658
     21  C14       -6.5760    0.9150    0.6640 C.ar    1  UNL1        0.0496
     22  C15       -7.9360    0.7210    0.5420 C.ar    1  UNL1       -0.0487
     23  C16       -8.3700   -0.2340   -0.3510 C.ar    1  UNL1       -0.0610
     24  C17       -7.4420   -0.9640   -1.0930 C.ar    1  UNL1       -0.0611
     25  C18       -6.0850   -0.7560   -0.9580 C.ar    1  UNL1       -0.0520
     26  C19       -5.6450    0.1980   -0.0660 C.ar    1  UNL1        0.0118
     27 H           1.4008   -1.6148   -2.1317 H       1  UNL1        0.1492
     28 H           3.1520    0.4306   -1.4753 H       1  UNL1        0.0465
     29 H           3.5793   -1.2484   -1.8462 H       1  UNL1        0.0465
     30 H           3.2739   -1.8586    0.4850 H       1  UNL1        0.0325
     31 H           2.8190   -0.2475    0.8945 H       1  UNL1        0.0325
     32 H           5.3556   -2.3403    0.8978 H       1  UNL1        0.0572
     33 H           7.6477   -1.2052   -0.1837 H       1  UNL1        0.0307
     34 H           7.6673   -1.7808    1.4428 H       1  UNL1        0.0307
     35 H           8.3366    0.5746    1.2856 H       1  UNL1        0.0268
     36 H           6.8349    0.3493    2.2205 H       1  UNL1        0.0268
     37 H           7.1932    1.4903   -0.4579 H       1  UNL1        0.0268
     38 H           6.4569    2.1775    1.0212 H       1  UNL1        0.0268
     39 H           4.5217    1.5686    0.3994 H       1  UNL1        0.0310
     40 H           5.2496    0.9489   -1.1139 H       1  UNL1        0.0310
     41 H          -1.7947    0.6770    0.2143 H       1  UNL1        0.1495
     42 H          -3.4779   -1.4374   -0.5227 H       1  UNL1        0.0528
     43 H          -3.5327   -0.2114   -1.7817 H       1  UNL1        0.0528
     44 H          -4.4251    2.7029    2.2751 H       1  UNL1        0.1921
     45 H          -8.6058    1.2725    1.1007 H       1  UNL1        0.0625
     46 H          -9.3800   -0.4089   -0.4706 H       1  UNL1        0.0618
     47 H          -7.7785   -1.6769   -1.7590 H       1  UNL1        0.0618
     48 H          -5.4115   -1.3048   -1.5149 H       1  UNL1        0.0624
@<TRIPOS>BOND
     1     1     2    2
     2     2     3   am
     3     2    12    1
     4     3     4    1
     5     4     5    1
     6     5     6    1
     7     6     7    2
     8     6    11    1
     9     7     8    1
    10     8     9    1
    11     9    10    1
    12    10    11    1
    13    12    13    2
    14    12    14   am
    15    14    15    1
    16    15    16    1
    17    16    17   ar
    18    16    26   ar
    19    17    18   ar
    20    18    19   ar
    21    19    20    2
    22    19    21   ar
    23    21    22   ar
    24    21    26   ar
    25    22    23   ar
    26    23    24   ar
    27    24    25   ar
    28    25    26   ar
    29     3    27    1
    30     4    28    1
    31     4    29    1
    32     5    30    1
    33     5    31    1
    34     7    32    1
    35     8    33    1
    36     8    34    1
    37     9    35    1
    38     9    36    1
    39    10    37    1
    40    10    38    1
    41    11    39    1
    42    11    40    1
    43    14    41    1
    44    15    42    1
    45    15    43    1
    46    18    44    1
    47    22    45    1
    48    23    46    1
    49    24    47    1
    50    25    48    1
@<TRIPOS>MOLECULE
../data/bude_mols_rdkit_confs2/molecule_20.pdb
 48 50 0 0 0
SMALL
GASTEIGER

@<TRIPOS>ATOM
      1  O1        -0.8140   -1.1360    1.7320 O.2     1  UNL1       -0.2652
      2  C1        -0.1910   -0.5730    0.9110 C.2     1  UNL1        0.2990
      3  N1        -0.7840    0.4650    0.0630 N.am    1  UNL1       -0.3073
      4  C2        -2.1470    0.9060    0.0980 C.3     1  UNL1        0.0157
      5  C3        -3.1310   -0.1980    0.0200 C.3     1  UNL1       -0.0161
      6  C4        -4.5390    0.2630   -0.0910 C.2     1  UNL1       -0.0720
      7  C5        -4.8750    1.5430   -0.2580 C.2     1  UNL1       -0.0847
      8  C6        -6.2530    2.0580   -0.3770 C.3     1  UNL1       -0.0345
      9  C7        -7.2900    1.0200   -0.4920 C.3     1  UNL1       -0.0493
     10  C8        -6.7410   -0.3260   -0.9340 C.3     1  UNL1       -0.0491
     11  C9        -5.6720   -0.7040    0.0590 C.3     1  UNL1       -0.0317
     12  C10        1.2410   -0.8060    0.5800 C.2     1  UNL1        0.2993
     13  O2         1.8320    0.0290   -0.1480 O.2     1  UNL1       -0.2652
     14  N2         1.9590   -1.9400    1.0300 N.am    1  UNL1       -0.3019
     15  C11        3.3310   -2.1180    0.5930 C.3     1  UNL1        0.0567
     16  C12        4.3550   -1.2350    1.0670 C.ar    1  UNL1        0.0863
     17  N3         4.7890   -1.1980    2.3680 N.ar    1  UNL1       -0.1737
     18  N4         5.8720   -0.5520    2.7680 N.ar    1  UNL1       -0.2424
     19  C13        6.6500    0.1360    1.9410 C.ar    1  UNL1        0.2725
     20  O3         7.6830    0.7560    2.2710 O.2     1  UNL1       -0.2658
     21  C14        6.2620    0.1490    0.5680 C.ar    1  UNL1        0.0496
     22  C15        6.9590    0.9050   -0.3390 C.ar    1  UNL1       -0.0487
     23  C16        6.5180    0.9840   -1.6750 C.ar    1  UNL1       -0.0610
     24  C17        5.3860    0.3020   -2.0690 C.ar    1  UNL1       -0.0611
     25  C18        4.6910   -0.4570   -1.1670 C.ar    1  UNL1       -0.0520
     26  C19        5.1480   -0.5200    0.1480 C.ar    1  UNL1        0.0118
     27 H          -0.1908    0.8997   -0.5915 H       1  UNL1        0.1492
     28 H          -2.3108    1.5639   -0.7298 H       1  UNL1        0.0465
     29 H          -2.2950    1.3914    1.0400 H       1  UNL1        0.0465
     30 H          -3.0397   -0.7948    0.9034 H       1  UNL1        0.0325
     31 H          -2.9117   -0.7497   -0.8702 H       1  UNL1        0.0325
     32 H          -4.1072    2.2307   -0.3082 H       1  UNL1        0.0572
     33 H          -6.3033    2.6772   -1.2482 H       1  UNL1        0.0307
     34 H          -6.4563    2.5890    0.5294 H       1  UNL1        0.0307
     35 H          -8.0168    1.3428   -1.2079 H       1  UNL1        0.0268
     36 H          -7.7164    0.8865    0.4803 H       1  UNL1        0.0268
     37 H          -6.3222   -0.2492   -1.9156 H       1  UNL1        0.0268
     38 H          -7.5140   -1.0650   -0.9678 H       1  UNL1        0.0268
     39 H          -6.0648   -0.6519    1.0529 H       1  UNL1        0.0310
     40 H          -5.3343   -1.7033   -0.1206 H       1  UNL1        0.0310
     41 H           1.5349   -2.5963    1.6289 H       1  UNL1        0.1495
     42 H           3.3274   -2.0418   -0.4743 H       1  UNL1        0.0528
     43 H           3.6038   -3.0611    1.0184 H       1  UNL1        0.0528
     44 H           6.1119   -0.5829    3.7223 H       1  UNL1        0.1921
     45 H           7.8057    1.4156   -0.0435 H       1  UNL1        0.0625
     46 H           7.0422    1.5523   -2.3586 H       1  UNL1        0.0618
     47 H           5.0621    0.3642   -3.0469 H       1  UNL1        0.0618
     48 H           3.8448   -0.9728   -1.4550 H       1  UNL1        0.0624
@<TRIPOS>BOND
     1     1     2    2
     2     2     3   am
     3     2    12    1
     4     3     4    1
     5     4     5    1
     6     5     6    1
     7     6     7    2
     8     6    11    1
     9     7     8    1
    10     8     9    1
    11     9    10    1
    12    10    11    1
    13    12    13    2
    14    12    14   am
    15    14    15    1
    16    15    16    1
    17    16    17   ar
    18    16    26   ar
    19    17    18   ar
    20    18    19   ar
    21    19    20    2
    22    19    21   ar
    23    21    22   ar
    24    21    26   ar
    25    22    23   ar
    26    23    24   ar
    27    24    25   ar
    28    25    26   ar
    29     3    27    1
    30     4    28    1
    31     4    29    1
    32     5    30    1
    33     5    31    1
    34     7    32    1
    35     8    33    1
    36     8    34    1
    37     9    35    1
    38     9    36    1
    39    10    37    1
    40    10    38    1
    41    11    39    1
    42    11    40    1
    43    14    41    1
    44    15    42    1
    45    15    43    1
    46    18    44    1
    47    22    45    1
    48    23    46    1
    49    24    47    1
    50    25    48    1
@<TRIPOS>MOLECULE
../data/bude_mols_rdkit_confs2/molecule_20.pdb
 48 50 0 0 0
SMALL
GASTEIGER

@<TRIPOS>ATOM
      1  O1        -0.8820    1.2580    0.2090 O.2     1  UNL1       -0.2652
      2  C1        -0.2800    0.2000   -0.1400 C.2     1  UNL1        0.2990
      3  N1        -0.9730   -1.0410   -0.0900 N.am    1  UNL1       -0.3073
      4  C2        -2.3510   -1.1710    0.3410 C.3     1  UNL1        0.0157
      5  C3        -3.2440   -0.3640   -0.5550 C.3     1  UNL1       -0.0161
      6  C4        -4.6850   -0.4920   -0.1230 C.2     1  UNL1       -0.0720
      7  C5        -5.0280   -1.2330    0.9130 C.2     1  UNL1       -0.0847
      8  C6        -6.4540   -1.3260    1.2970 C.3     1  UNL1       -0.0345
      9  C7        -6.9970    0.1080    1.2400 C.3     1  UNL1       -0.0493
     10  C8        -6.9790    0.5080   -0.2100 C.3     1  UNL1       -0.0491
     11  C9        -5.6850    0.2470   -0.9110 C.3     1  UNL1       -0.0317
     12  C10        1.1040    0.2510   -0.5860 C.2     1  UNL1        0.2993
     13  O2         1.6640   -0.8160   -0.9220 O.2     1  UNL1       -0.2652
     14  N2         1.8150    1.4800   -0.6420 N.am    1  UNL1       -0.3019
     15  C11        3.1930    1.5310   -1.0860 C.3     1  UNL1        0.0567
     16  C12        4.0140    0.7110   -0.1990 C.ar    1  UNL1        0.0863
     17  N3         3.4720    0.0550    0.8400 N.ar    1  UNL1       -0.1737
     18  N4         4.1590   -0.6910    1.6670 N.ar    1  UNL1       -0.2424
     19  C13        5.4800   -0.8480    1.5190 C.ar    1  UNL1        0.2725
     20  O3         6.1200   -1.5840    2.3440 O.2     1  UNL1       -0.2658
     21  C14        6.1370   -0.2180    0.4830 C.ar    1  UNL1        0.0496
     22  C15        7.4910   -0.3580    0.3040 C.ar    1  UNL1       -0.0487
     23  C16        8.1190    0.2820   -0.7360 C.ar    1  UNL1       -0.0610
     24  C17        7.3430    1.0620   -1.5850 C.ar    1  UNL1       -0.0611
     25  C18        5.9820    1.2120   -1.4170 C.ar    1  UNL1       -0.0520
     26  C19        5.3740    0.5740   -0.3830 C.ar    1  UNL1        0.0118
     27 H          -0.4912   -1.8551   -0.3626 H       1  UNL1        0.1492
     28 H          -2.4433   -0.8167    1.3464 H       1  UNL1        0.0465
     29 H          -2.6400   -2.2001    0.2925 H       1  UNL1        0.0465
     30 H          -3.1455   -0.7170   -1.5603 H       1  UNL1        0.0325
     31 H          -2.9555    0.6646   -0.4943 H       1  UNL1        0.0325
     32 H          -4.3092   -1.7426    1.4502 H       1  UNL1        0.0572
     33 H          -6.5482   -1.7210    2.2870 H       1  UNL1        0.0307
     34 H          -6.9957   -1.9783    0.6444 H       1  UNL1        0.0307
     35 H          -6.3745    0.7631    1.8129 H       1  UNL1        0.0268
     36 H          -7.9845    0.1668    1.6478 H       1  UNL1        0.0268
     37 H          -7.1855    1.5562   -0.2697 H       1  UNL1        0.0268
     38 H          -7.7161   -0.0933   -0.6998 H       1  UNL1        0.0268
     39 H          -5.8950   -0.3191   -1.7943 H       1  UNL1        0.0310
     40 H          -5.2562    1.2066   -1.1113 H       1  UNL1        0.0310
     41 H           1.3627    2.3124   -0.3741 H       1  UNL1        0.1495
     42 H           3.5399    2.5429   -1.0609 H       1  UNL1        0.0528
     43 H           3.2623    1.1583   -2.0866 H       1  UNL1        0.0528
     44 H           3.6972   -1.1437    2.4093 H       1  UNL1        0.1921
     45 H           8.0380   -0.9455    0.9525 H       1  UNL1        0.0625
     46 H           9.1361    0.1867   -0.8827 H       1  UNL1        0.0618
     47 H           7.8025    1.5476   -2.3712 H       1  UNL1        0.0618
     48 H           5.4348    1.7990   -2.0659 H       1  UNL1        0.0624
@<TRIPOS>BOND
     1     1     2    2
     2     2     3   am
     3     2    12    1
     4     3     4    1
     5     4     5    1
     6     5     6    1
     7     6     7    2
     8     6    11    1
     9     7     8    1
    10     8     9    1
    11     9    10    1
    12    10    11    1
    13    12    13    2
    14    12    14   am
    15    14    15    1
    16    15    16    1
    17    16    17   ar
    18    16    26   ar
    19    17    18   ar
    20    18    19   ar
    21    19    20    2
    22    19    21   ar
    23    21    22   ar
    24    21    26   ar
    25    22    23   ar
    26    23    24   ar
    27    24    25   ar
    28    25    26   ar
    29     3    27    1
    30     4    28    1
    31     4    29    1
    32     5    30    1
    33     5    31    1
    34     7    32    1
    35     8    33    1
    36     8    34    1
    37     9    35    1
    38     9    36    1
    39    10    37    1
    40    10    38    1
    41    11    39    1
    42    11    40    1
    43    14    41    1
    44    15    42    1
    45    15    43    1
    46    18    44    1
    47    22    45    1
    48    23    46    1
    49    24    47    1
    50    25    48    1
@<TRIPOS>MOLECULE
../data/bude_mols_rdkit_confs2/molecule_20.pdb
 48 50 0 0 0
SMALL
GASTEIGER

@<TRIPOS>ATOM
      1  O1        -0.7260    0.5630    0.6770 O.2     1  UNL1       -0.2652
      2  C1        -0.2740   -0.3970    0.0480 C.2     1  UNL1        0.2990
      3  N1        -1.2630   -0.9030   -0.9410 N.am    1  UNL1       -0.3073
      4  C2        -2.5420   -0.4000   -1.1430 C.3     1  UNL1        0.0157
      5  C3        -3.3970   -0.5290    0.1260 C.3     1  UNL1       -0.0161
      6  C4        -4.7610   -0.0380   -0.1190 C.2     1  UNL1       -0.0720
      7  C5        -5.8040   -0.8220    0.0880 C.2     1  UNL1       -0.0847
      8  C6        -7.2230   -0.5120   -0.1170 C.3     1  UNL1       -0.0345
      9  C7        -7.2820    0.6550   -1.1490 C.3     1  UNL1       -0.0493
     10  C8        -6.4250    1.7300   -0.5810 C.3     1  UNL1       -0.0491
     11  C9        -4.9790    1.3700   -0.5540 C.3     1  UNL1       -0.0317
     12  C10        1.0160   -1.0350    0.1180 C.2     1  UNL1        0.2993
     13  O2         1.3390   -1.9320   -0.7000 O.2     1  UNL1       -0.2652
     14  N2         1.9720   -0.6970    1.0950 N.am    1  UNL1       -0.3019
     15  C11        3.2840   -1.2040    1.2910 C.3     1  UNL1        0.0567
     16  C12        4.2990   -0.8270    0.2450 C.ar    1  UNL1        0.0863
     17  N3         4.2920   -1.2070   -0.9960 N.ar    1  UNL1       -0.1737
     18  N4         5.3250   -0.9980   -1.8450 N.ar    1  UNL1       -0.2424
     19  C13        6.4530   -0.3660   -1.4630 C.ar    1  UNL1        0.2725
     20  O3         7.4090   -0.1870   -2.2500 O.2     1  UNL1       -0.2658
     21  C14        6.4900    0.0760   -0.1360 C.ar    1  UNL1        0.0496
     22  C15        7.6250    0.8510    0.2420 C.ar    1  UNL1       -0.0487
     23  C16        7.5610    1.3450    1.5600 C.ar    1  UNL1       -0.0610
     24  C17        6.5450    1.1130    2.3530 C.ar    1  UNL1       -0.0611
     25  C18        5.4400    0.3680    1.9990 C.ar    1  UNL1       -0.0520
     26  C19        5.4270   -0.1660    0.6910 C.ar    1  UNL1        0.0118
     27 H          -0.9863   -1.6626   -1.5029 H       1  UNL1        0.1492
     28 H          -3.0100   -0.9450   -1.9359 H       1  UNL1        0.0465
     29 H          -2.4622    0.6372   -1.3935 H       1  UNL1        0.0465
     30 H          -2.9515    0.0462    0.9106 H       1  UNL1        0.0325
     31 H          -3.4460   -1.5604    0.4064 H       1  UNL1        0.0325
     32 H          -5.5944   -1.7702    0.4373 H       1  UNL1        0.0572
     33 H          -7.6718   -0.2107    0.8064 H       1  UNL1        0.0307
     34 H          -7.7565   -1.3683   -0.4734 H       1  UNL1        0.0307
     35 H          -8.2878    1.0008   -1.2657 H       1  UNL1        0.0268
     36 H          -6.9445    0.3473   -2.1166 H       1  UNL1        0.0268
     37 H          -6.7456    1.9281    0.4204 H       1  UNL1        0.0268
     38 H          -6.5290    2.5883   -1.2114 H       1  UNL1        0.0268
     39 H          -4.5739    1.4944   -1.5365 H       1  UNL1        0.0310
     40 H          -4.4923    2.0119    0.1502 H       1  UNL1        0.0310
     41 H           1.6889   -0.0069    1.7375 H       1  UNL1        0.1495
     42 H           3.2220   -2.2719    1.3174 H       1  UNL1        0.0528
     43 H           3.6309   -0.7635    2.2023 H       1  UNL1        0.0528
     44 H           5.2502   -1.3183   -2.7729 H       1  UNL1        0.1921
     45 H           8.4196    1.0333   -0.3907 H       1  UNL1        0.0625
     46 H           8.3465    1.9126    1.9148 H       1  UNL1        0.0618
     47 H           6.5731    1.5134    3.3037 H       1  UNL1        0.0618
     48 H           4.6611    0.2084    2.6569 H       1  UNL1        0.0624
@<TRIPOS>BOND
     1     1     2    2
     2     2     3   am
     3     2    12    1
     4     3     4    1
     5     4     5    1
     6     5     6    1
     7     6     7    2
     8     6    11    1
     9     7     8    1
    10     8     9    1
    11     9    10    1
    12    10    11    1
    13    12    13    2
    14    12    14   am
    15    14    15    1
    16    15    16    1
    17    16    17   ar
    18    16    26   ar
    19    17    18   ar
    20    18    19   ar
    21    19    20    2
    22    19    21   ar
    23    21    22   ar
    24    21    26   ar
    25    22    23   ar
    26    23    24   ar
    27    24    25   ar
    28    25    26   ar
    29     3    27    1
    30     4    28    1
    31     4    29    1
    32     5    30    1
    33     5    31    1
    34     7    32    1
    35     8    33    1
    36     8    34    1
    37     9    35    1
    38     9    36    1
    39    10    37    1
    40    10    38    1
    41    11    39    1
    42    11    40    1
    43    14    41    1
    44    15    42    1
    45    15    43    1
    46    18    44    1
    47    22    45    1
    48    23    46    1
    49    24    47    1
    50    25    48    1
@<TRIPOS>MOLECULE
../data/bude_mols_rdkit_confs2/molecule_20.pdb
 48 50 0 0 0
SMALL
GASTEIGER

@<TRIPOS>ATOM
      1  O1         0.7490   -0.8300    1.2910 O.2     1  UNL1       -0.2652
      2  C1         0.2540   -0.2590    0.2910 C.2     1  UNL1        0.2990
      3  N1         1.0570    0.6470   -0.4380 N.am    1  UNL1       -0.3073
      4  C2         2.4260    0.9820   -0.1330 C.3     1  UNL1        0.0157
      5  C3         3.2690   -0.2490   -0.2030 C.3     1  UNL1       -0.0161
      6  C4         4.7100    0.0780    0.1100 C.2     1  UNL1       -0.0720
      7  C5         5.1190    1.2890    0.3990 C.2     1  UNL1       -0.0847
      8  C6         6.5830    1.4660    0.6900 C.3     1  UNL1       -0.0345
      9  C7         7.2940    0.8350   -0.5090 C.3     1  UNL1       -0.0493
     10  C8         6.9960   -0.6470   -0.5520 C.3     1  UNL1       -0.0491
     11  C9         5.7040   -1.0300    0.0900 C.3     1  UNL1       -0.0317
     12  C10       -1.1240   -0.5330   -0.1010 C.2     1  UNL1        0.2993
     13  O2        -1.6430    0.0280   -1.1000 O.2     1  UNL1       -0.2652
     14  N2        -1.9260   -1.4430    0.6350 N.am    1  UNL1       -0.3019
     15  C11       -3.2950   -1.7120    0.2420 C.3     1  UNL1        0.0567
     16  C12       -4.1040   -0.4440    0.2740 C.ar    1  UNL1        0.0863
     17  N3        -3.5710    0.7360    0.6270 N.ar    1  UNL1       -0.1737
     18  N4        -4.2770    1.8590    0.6580 N.ar    1  UNL1       -0.2424
     19  C13       -5.5810    1.8870    0.3370 C.ar    1  UNL1        0.2725
     20  O3        -6.2400    2.9760    0.3740 O.2     1  UNL1       -0.2658
     21  C14       -6.1780    0.7000   -0.0330 C.ar    1  UNL1        0.0496
     22  C15       -7.5140    0.6750   -0.3720 C.ar    1  UNL1       -0.0487
     23  C16       -8.1350   -0.5060   -0.7470 C.ar    1  UNL1       -0.0610
     24  C17       -7.3730   -1.6700   -0.7720 C.ar    1  UNL1       -0.0611
     25  C18       -6.0370   -1.6610   -0.4350 C.ar    1  UNL1       -0.0520
     26  C19       -5.4390   -0.4730   -0.0650 C.ar    1  UNL1        0.0118
     27 H           0.6479    1.0857   -1.2186 H       1  UNL1        0.1492
     28 H           2.4806    1.3958    0.8522 H       1  UNL1        0.0465
     29 H           2.7835    1.6991   -0.8422 H       1  UNL1        0.0465
     30 H           3.2077   -0.6622   -1.1881 H       1  UNL1        0.0325
     31 H           2.9104   -0.9553    0.5163 H       1  UNL1        0.0325
     32 H           4.4644    2.0864    0.4256 H       1  UNL1        0.0572
     33 H           6.8515    0.9635    1.5957 H       1  UNL1        0.0307
     34 H           6.8486    2.4938    0.8244 H       1  UNL1        0.0307
     35 H           8.3495    0.9836   -0.4159 H       1  UNL1        0.0268
     36 H           6.9462    1.2941   -1.4108 H       1  UNL1        0.0268
     37 H           7.7868   -1.1631   -0.0487 H       1  UNL1        0.0268
     38 H           6.9176   -0.9151   -1.5849 H       1  UNL1        0.0268
     39 H           5.2857   -1.8528   -0.4512 H       1  UNL1        0.0310
     40 H           5.9169   -1.2856    1.1070 H       1  UNL1        0.0310
     41 H          -1.5480   -1.8973    1.4224 H       1  UNL1        0.1495
     42 H          -3.7237   -2.4218    0.9182 H       1  UNL1        0.0528
     43 H          -3.3015   -2.1050   -0.7532 H       1  UNL1        0.0528
     44 H          -3.8322    2.6960    0.9240 H       1  UNL1        0.1921
     45 H          -8.0607    1.5499   -0.3461 H       1  UNL1        0.0625
     46 H          -9.1352   -0.5216   -1.0007 H       1  UNL1        0.0618
     47 H          -7.8180   -2.5590   -1.0489 H       1  UNL1        0.0618
     48 H          -5.4882   -2.5347   -0.4590 H       1  UNL1        0.0624
@<TRIPOS>BOND
     1     1     2    2
     2     2     3   am
     3     2    12    1
     4     3     4    1
     5     4     5    1
     6     5     6    1
     7     6     7    2
     8     6    11    1
     9     7     8    1
    10     8     9    1
    11     9    10    1
    12    10    11    1
    13    12    13    2
    14    12    14   am
    15    14    15    1
    16    15    16    1
    17    16    17   ar
    18    16    26   ar
    19    17    18   ar
    20    18    19   ar
    21    19    20    2
    22    19    21   ar
    23    21    22   ar
    24    21    26   ar
    25    22    23   ar
    26    23    24   ar
    27    24    25   ar
    28    25    26   ar
    29     3    27    1
    30     4    28    1
    31     4    29    1
    32     5    30    1
    33     5    31    1
    34     7    32    1
    35     8    33    1
    36     8    34    1
    37     9    35    1
    38     9    36    1
    39    10    37    1
    40    10    38    1
    41    11    39    1
    42    11    40    1
    43    14    41    1
    44    15    42    1
    45    15    43    1
    46    18    44    1
    47    22    45    1
    48    23    46    1
    49    24    47    1
    50    25    48    1
@<TRIPOS>MOLECULE
../data/bude_mols_rdkit_confs2/molecule_20.pdb
 48 50 0 0 0
SMALL
GASTEIGER

@<TRIPOS>ATOM
      1  O1         0.7470    1.3410    0.7750 O.2     1  UNL1       -0.2652
      2  C1         0.2990    0.3890    0.1280 C.2     1  UNL1        0.2990
      3  N1         1.1190   -0.6960   -0.2100 N.am    1  UNL1       -0.3073
      4  C2         2.5090   -0.7860    0.1530 C.3     1  UNL1        0.0157
      5  C3         3.2420    0.3700   -0.4830 C.3     1  UNL1       -0.0161
      6  C4         4.6900    0.2700   -0.1060 C.2     1  UNL1       -0.0720
      7  C5         5.2100    1.2850    0.5650 C.2     1  UNL1       -0.0847
      8  C6         6.6360    1.2250    0.9560 C.3     1  UNL1       -0.0345
      9  C7         7.0310   -0.2070    1.1340 C.3     1  UNL1       -0.0493
     10  C8         6.8840   -0.8610   -0.2470 C.3     1  UNL1       -0.0491
     11  C9         5.4160   -0.9560   -0.5160 C.3     1  UNL1       -0.0317
     12  C10       -1.1260    0.4200   -0.2820 C.2     1  UNL1        0.2993
     13  O2        -1.6200   -0.5220   -0.9370 O.2     1  UNL1       -0.2652
     14  N2        -1.9370    1.5110    0.0620 N.am    1  UNL1       -0.3019
     15  C11       -3.3260    1.5220   -0.3460 C.3     1  UNL1        0.0567
     16  C12       -4.0490    0.3790    0.2470 C.ar    1  UNL1        0.0863
     17  N3        -3.3890   -0.4660    1.0440 N.ar    1  UNL1       -0.1737
     18  N4        -3.9800   -1.5000    1.6050 N.ar    1  UNL1       -0.2424
     19  C13       -5.2840   -1.7310    1.3850 C.ar    1  UNL1        0.2725
     20  O3        -5.8470   -2.7180    1.9220 O.2     1  UNL1       -0.2658
     21  C14       -6.0590   -0.9140    0.5750 C.ar    1  UNL1        0.0496
     22  C15       -7.3980   -1.1310    0.3340 C.ar    1  UNL1       -0.0487
     23  C16       -8.1130   -0.2800   -0.4830 C.ar    1  UNL1       -0.0610
     24  C17       -7.4660    0.7940   -1.0560 C.ar    1  UNL1       -0.0611
     25  C18       -6.1280    1.0000   -0.8080 C.ar    1  UNL1       -0.0520
     26  C19       -5.3840    0.1610    0.0090 C.ar    1  UNL1        0.0118
     27 H           0.7230   -1.4367   -0.7235 H       1  UNL1        0.1492
     28 H           2.9158   -1.7104   -0.2003 H       1  UNL1        0.0465
     29 H           2.6148   -0.7483    1.2171 H       1  UNL1        0.0465
     30 H           2.8380    1.2948   -0.1275 H       1  UNL1        0.0325
     31 H           3.1336    0.3364   -1.5470 H       1  UNL1        0.0325
     32 H           4.6317    2.1035    0.8112 H       1  UNL1        0.0572
     33 H           6.7787    1.7537    1.8752 H       1  UNL1        0.0307
     34 H           7.2392    1.6751    0.1955 H       1  UNL1        0.0307
     35 H           6.3870   -0.6851    1.8423 H       1  UNL1        0.0268
     36 H           8.0308   -0.2947    1.5048 H       1  UNL1        0.0268
     37 H           7.3232   -1.8367   -0.2429 H       1  UNL1        0.0268
     38 H           7.3801   -0.2877   -1.0021 H       1  UNL1        0.0268
     39 H           5.2672   -1.1100   -1.5644 H       1  UNL1        0.0310
     40 H           5.0297   -1.7730    0.0568 H       1  UNL1        0.0310
     41 H          -1.5649    2.2632    0.5767 H       1  UNL1        0.1495
     42 H          -3.3801    1.4576   -1.4127 H       1  UNL1        0.0528
     43 H          -3.7786    2.4306   -0.0076 H       1  UNL1        0.0528
     44 H          -3.4650   -2.1047    2.1867 H       1  UNL1        0.1921
     45 H          -7.8709   -1.9385    0.7691 H       1  UNL1        0.0625
     46 H          -9.1159   -0.4447   -0.6623 H       1  UNL1        0.0618
     47 H          -7.9839    1.4422   -1.6697 H       1  UNL1        0.0618
     48 H          -5.6605    1.8090   -1.2462 H       1  UNL1        0.0624
@<TRIPOS>BOND
     1     1     2    2
     2     2     3   am
     3     2    12    1
     4     3     4    1
     5     4     5    1
     6     5     6    1
     7     6     7    2
     8     6    11    1
     9     7     8    1
    10     8     9    1
    11     9    10    1
    12    10    11    1
    13    12    13    2
    14    12    14   am
    15    14    15    1
    16    15    16    1
    17    16    17   ar
    18    16    26   ar
    19    17    18   ar
    20    18    19   ar
    21    19    20    2
    22    19    21   ar
    23    21    22   ar
    24    21    26   ar
    25    22    23   ar
    26    23    24   ar
    27    24    25   ar
    28    25    26   ar
    29     3    27    1
    30     4    28    1
    31     4    29    1
    32     5    30    1
    33     5    31    1
    34     7    32    1
    35     8    33    1
    36     8    34    1
    37     9    35    1
    38     9    36    1
    39    10    37    1
    40    10    38    1
    41    11    39    1
    42    11    40    1
    43    14    41    1
    44    15    42    1
    45    15    43    1
    46    18    44    1
    47    22    45    1
    48    23    46    1
    49    24    47    1
    50    25    48    1
@<TRIPOS>MOLECULE
../data/bude_mols_rdkit_confs2/molecule_20.pdb
 48 50 0 0 0
SMALL
GASTEIGER

@<TRIPOS>ATOM
      1  O1         0.8930    0.2700    1.6930 O.2     1  UNL1       -0.2652
      2  C1         0.4050    0.6710    0.6080 C.2     1  UNL1        0.2990
      3  N1         1.2350    0.8670   -0.5260 N.am    1  UNL1       -0.3073
      4  C2         2.6530    0.6290   -0.5220 C.3     1  UNL1        0.0157
      5  C3         3.0030   -0.8160   -0.1860 C.3     1  UNL1       -0.0161
      6  C4         4.4820   -0.9120   -0.2180 C.2     1  UNL1       -0.0720
      7  C5         5.1070   -1.2830    0.8920 C.2     1  UNL1       -0.0847
      8  C6         6.5980   -1.3680    0.8220 C.3     1  UNL1       -0.0345
      9  C7         7.1530   -0.0980    0.2010 C.3     1  UNL1       -0.0493
     10  C8         6.4880    0.2640   -1.0860 C.3     1  UNL1       -0.0491
     11  C9         5.2990   -0.6200   -1.4080 C.3     1  UNL1       -0.0317
     12  C10       -1.0200    0.9440    0.4880 C.2     1  UNL1        0.2993
     13  O2        -1.5560    1.3440   -0.5670 O.2     1  UNL1       -0.2652
     14  N2        -1.8900    0.7560    1.6130 N.am    1  UNL1       -0.3019
     15  C11       -3.2900    1.0130    1.5350 C.3     1  UNL1        0.0567
     16  C12       -3.9880    0.1900    0.5260 C.ar    1  UNL1        0.0863
     17  N3        -3.3280   -0.7050   -0.2250 N.ar    1  UNL1       -0.1737
     18  N4        -3.9420   -1.4570   -1.1400 N.ar    1  UNL1       -0.2424
     19  C13       -5.2670   -1.3510   -1.3540 C.ar    1  UNL1        0.2725
     20  O3        -5.8330   -2.0790   -2.2320 O.2     1  UNL1       -0.2658
     21  C14       -5.9900   -0.4490   -0.6100 C.ar    1  UNL1        0.0496
     22  C15       -7.3490   -0.3270   -0.8160 C.ar    1  UNL1       -0.0487
     23  C16       -8.0410    0.5760   -0.0640 C.ar    1  UNL1       -0.0610
     24  C17       -7.4350    1.3680    0.8910 C.ar    1  UNL1       -0.0611
     25  C18       -6.0780    1.2450    1.0950 C.ar    1  UNL1       -0.0520
     26  C19       -5.3460    0.3390    0.3490 C.ar    1  UNL1        0.0118
     27 H           0.8178    1.1828   -1.3599 H       1  UNL1        0.1492
     28 H           3.1061    1.2696    0.2055 H       1  UNL1        0.0465
     29 H           3.0186    0.8307   -1.5072 H       1  UNL1        0.0465
     30 H           2.5744   -1.4775   -0.9096 H       1  UNL1        0.0325
     31 H           2.6190   -1.0929    0.7736 H       1  UNL1        0.0325
     32 H           4.5908   -1.5015    1.7585 H       1  UNL1        0.0572
     33 H           6.8788   -2.2092    0.2233 H       1  UNL1        0.0307
     34 H           6.9938   -1.4826    1.8095 H       1  UNL1        0.0307
     35 H           8.1978   -0.2374    0.0170 H       1  UNL1        0.0268
     36 H           6.9704    0.7001    0.8899 H       1  UNL1        0.0268
     37 H           7.2035    0.1743   -1.8765 H       1  UNL1        0.0268
     38 H           6.1247    1.2656   -0.9877 H       1  UNL1        0.0268
     39 H           4.6873   -0.1238   -2.1322 H       1  UNL1        0.0310
     40 H           5.6737   -1.5490   -1.7842 H       1  UNL1        0.0310
     41 H          -1.5090    0.4402    2.4641 H       1  UNL1        0.1495
     42 H          -3.4311    2.0442    1.2866 H       1  UNL1        0.0528
     43 H          -3.7082    0.7624    2.4875 H       1  UNL1        0.0528
     44 H          -3.4169   -2.1009   -1.6681 H       1  UNL1        0.1921
     45 H          -7.8302   -0.9054   -1.5223 H       1  UNL1        0.0625
     46 H          -9.0575    0.6711   -0.2146 H       1  UNL1        0.0618
     47 H          -7.9894    2.0411    1.4429 H       1  UNL1        0.0618
     48 H          -5.6078    1.8288    1.8043 H       1  UNL1        0.0624
@<TRIPOS>BOND
     1     1     2    2
     2     2     3   am
     3     2    12    1
     4     3     4    1
     5     4     5    1
     6     5     6    1
     7     6     7    2
     8     6    11    1
     9     7     8    1
    10     8     9    1
    11     9    10    1
    12    10    11    1
    13    12    13    2
    14    12    14   am
    15    14    15    1
    16    15    16    1
    17    16    17   ar
    18    16    26   ar
    19    17    18   ar
    20    18    19   ar
    21    19    20    2
    22    19    21   ar
    23    21    22   ar
    24    21    26   ar
    25    22    23   ar
    26    23    24   ar
    27    24    25   ar
    28    25    26   ar
    29     3    27    1
    30     4    28    1
    31     4    29    1
    32     5    30    1
    33     5    31    1
    34     7    32    1
    35     8    33    1
    36     8    34    1
    37     9    35    1
    38     9    36    1
    39    10    37    1
    40    10    38    1
    41    11    39    1
    42    11    40    1
    43    14    41    1
    44    15    42    1
    45    15    43    1
    46    18    44    1
    47    22    45    1
    48    23    46    1
    49    24    47    1
    50    25    48    1
@<TRIPOS>MOLECULE
../data/bude_mols_rdkit_confs2/molecule_20.pdb
 48 50 0 0 0
SMALL
GASTEIGER

@<TRIPOS>ATOM
      1  O1         0.8340    1.4880    0.9780 O.2     1  UNL1       -0.2652
      2  C1         0.3830    1.0440   -0.0840 C.2     1  UNL1        0.2990
      3  N1         1.2450    0.4320   -1.0340 N.am    1  UNL1       -0.3073
      4  C2         2.6750    0.2860   -0.8370 C.3     1  UNL1        0.0157
      5  C3         2.9770   -0.5410    0.3920 C.3     1  UNL1       -0.0161
      6  C4         4.4810   -0.6470    0.5160 C.2     1  UNL1       -0.0720
      7  C5         5.0780   -1.8310    0.4930 C.2     1  UNL1       -0.0847
      8  C6         6.5700   -1.8810    0.6200 C.3     1  UNL1       -0.0345
      9  C7         6.9290   -0.8500    1.6740 C.3     1  UNL1       -0.0493
     10  C8         6.6370    0.5110    1.0930 C.3     1  UNL1       -0.0491
     11  C9         5.2230    0.6030    0.6560 C.3     1  UNL1       -0.0317
     12  C10       -1.0590    1.1350   -0.3970 C.2     1  UNL1        0.2993
     13  O2        -1.5200    0.6860   -1.4730 O.2     1  UNL1       -0.2652
     14  N2        -1.9710    1.7350    0.5130 N.am    1  UNL1       -0.3019
     15  C11       -3.3780    1.8040    0.1680 C.3     1  UNL1        0.0567
     16  C12       -3.9620    0.4690   -0.0420 C.ar    1  UNL1        0.0863
     17  N3        -3.2510   -0.6670    0.0790 N.ar    1  UNL1       -0.1737
     18  N4        -3.7820   -1.8630   -0.1100 N.ar    1  UNL1       -0.2424
     19  C13       -5.0770   -1.9990   -0.4380 C.ar    1  UNL1        0.2725
     20  O3        -5.6150   -3.1210   -0.6250 O.2     1  UNL1       -0.2658
     21  C14       -5.8930   -0.8800   -0.5860 C.ar    1  UNL1        0.0496
     22  C15       -7.2260   -1.0050   -0.9220 C.ar    1  UNL1       -0.0487
     23  C16       -7.9690    0.1470   -1.0510 C.ar    1  UNL1       -0.0610
     24  C17       -7.4120    1.3920   -0.8530 C.ar    1  UNL1       -0.0611
     25  C18       -6.0860    1.5070   -0.5180 C.ar    1  UNL1       -0.0520
     26  C19       -5.2950    0.3610   -0.3780 C.ar    1  UNL1        0.0118
     27 H           0.8514    0.0895   -1.8689 H       1  UNL1        0.1492
     28 H           3.1119    1.2558   -0.7209 H       1  UNL1        0.0465
     29 H           3.0848   -0.2134   -1.6900 H       1  UNL1        0.0465
     30 H           2.5501   -1.5167    0.2888 H       1  UNL1        0.0325
     31 H           2.5601   -0.0825    1.2643 H       1  UNL1        0.0325
     32 H           4.5276   -2.6979    0.3900 H       1  UNL1        0.0572
     33 H           7.0320   -1.6362   -0.3135 H       1  UNL1        0.0307
     34 H           6.9099   -2.8583    0.8926 H       1  UNL1        0.0307
     35 H           7.9671   -0.9267    1.9217 H       1  UNL1        0.0268
     36 H           6.3608   -1.0091    2.5666 H       1  UNL1        0.0268
     37 H           7.2762    0.6779    0.2513 H       1  UNL1        0.0268
     38 H           6.8128    1.2509    1.8457 H       1  UNL1        0.0268
     39 H           4.7043    1.2059    1.3718 H       1  UNL1        0.0310
     40 H           5.2678    1.0073   -0.3337 H       1  UNL1        0.0310
     41 H          -1.6508    2.1003    1.3693 H       1  UNL1        0.1495
     42 H          -3.4853    2.3731   -0.7317 H       1  UNL1        0.0528
     43 H          -3.8952    2.2658    0.9830 H       1  UNL1        0.0528
     44 H          -3.2201   -2.6650   -0.0088 H       1  UNL1        0.1921
     45 H          -7.6523   -1.9328   -1.0718 H       1  UNL1        0.0625
     46 H          -8.9675    0.0765   -1.3021 H       1  UNL1        0.0618
     47 H          -7.9927    2.2388   -0.9568 H       1  UNL1        0.0618
     48 H          -5.6715    2.4403   -0.3691 H       1  UNL1        0.0624
@<TRIPOS>BOND
     1     1     2    2
     2     2     3   am
     3     2    12    1
     4     3     4    1
     5     4     5    1
     6     5     6    1
     7     6     7    2
     8     6    11    1
     9     7     8    1
    10     8     9    1
    11     9    10    1
    12    10    11    1
    13    12    13    2
    14    12    14   am
    15    14    15    1
    16    15    16    1
    17    16    17   ar
    18    16    26   ar
    19    17    18   ar
    20    18    19   ar
    21    19    20    2
    22    19    21   ar
    23    21    22   ar
    24    21    26   ar
    25    22    23   ar
    26    23    24   ar
    27    24    25   ar
    28    25    26   ar
    29     3    27    1
    30     4    28    1
    31     4    29    1
    32     5    30    1
    33     5    31    1
    34     7    32    1
    35     8    33    1
    36     8    34    1
    37     9    35    1
    38     9    36    1
    39    10    37    1
    40    10    38    1
    41    11    39    1
    42    11    40    1
    43    14    41    1
    44    15    42    1
    45    15    43    1
    46    18    44    1
    47    22    45    1
    48    23    46    1
    49    24    47    1
    50    25    48    1
