@<TRIPOS>MOLECULE
../data/bude_mols_rdkit_confs2/molecule_34.pdb
 41 43 0 0 0
SMALL
GASTEIGER

@<TRIPOS>ATOM
      1  O1         2.8880   -1.0780   -1.0090 O.2     1  UNL1       -0.2702
      2  C1         3.5410   -0.1150   -0.5270 C.2     1  UNL1        0.2441
      3  N1         2.8800    1.1250   -0.4310 N.am    1  UNL1       -0.3099
      4  C2         1.5120    1.3560   -0.8440 C.3     1  UNL1        0.0275
      5  C3         0.6100    0.4720   -0.0380 C.3     1  UNL1        0.0275
      6  N2        -0.7540    0.7080   -0.4510 N.am    1  UNL1       -0.3085
      7  C4        -1.8540   -0.0100    0.1580 C.2     1  UNL1        0.2648
      8  O2        -1.5120   -0.8140    1.0340 O.2     1  UNL1       -0.2684
      9  C5        -3.2070    0.2700   -0.2980 C.ar    1  UNL1        0.1533
     10  N3        -3.4080    1.1900   -1.2780 N.ar    1  UNL1       -0.1656
     11  N4        -4.6030    1.4820   -1.7270 N.ar    1  UNL1       -0.2420
     12  C6        -5.6990    0.8800   -1.2370 C.ar    1  UNL1        0.2725
     13  O3        -6.8360    1.1940   -1.7030 O.2     1  UNL1       -0.2658
     14  C7        -5.5930   -0.0660   -0.2420 C.ar    1  UNL1        0.0501
     15  C8        -6.7280   -0.6720    0.2460 C.ar    1  UNL1       -0.0487
     16  C9        -6.6330   -1.6170    1.2390 C.ar    1  UNL1       -0.0610
     17  C10       -5.3810   -1.9160    1.7030 C.ar    1  UNL1       -0.0611
     18  C11       -4.2280   -1.3010    1.2060 C.ar    1  UNL1       -0.0516
     19  C12       -4.3060   -0.3620    0.2230 C.ar    1  UNL1        0.0195
     20  C13        4.9330   -0.3320   -0.0980 C.ar    1  UNL1        0.0369
     21  C14        5.4680   -1.6050   -0.2480 C.ar    1  UNL1       -0.0469
     22  C15        6.7630   -1.8650    0.1350 C.ar    1  UNL1       -0.0257
     23  C16        7.5660   -0.8840    0.6750 C.ar    1  UNL1        0.1234
     24  F1         8.8240   -1.2110    1.0280 F       1  UNL1       -0.2055
     25  C17        7.0200    0.3720    0.8160 C.ar    1  UNL1       -0.0257
     26  C18        5.7080    0.6590    0.4340 C.ar    1  UNL1       -0.0469
     27 H           3.3819    1.8854   -0.0581 H       1  UNL1        0.1491
     28 H           1.4062    1.1260   -1.8836 H       1  UNL1        0.0477
     29 H           1.2523    2.3820   -0.6862 H       1  UNL1        0.0477
     30 H           0.7166    0.7002    1.0019 H       1  UNL1        0.0477
     31 H           0.8676   -0.5546   -0.1952 H       1  UNL1        0.0477
     32 H          -0.9386    1.3677   -1.1580 H       1  UNL1        0.1491
     33 H          -4.6999    2.1562   -2.4379 H       1  UNL1        0.1921
     34 H          -7.6525   -0.4162   -0.1346 H       1  UNL1        0.0625
     35 H          -7.4719   -2.0823    1.6194 H       1  UNL1        0.0618
     36 H          -5.2840   -2.6228    2.4487 H       1  UNL1        0.0618
     37 H          -3.3060   -1.5621    1.5891 H       1  UNL1        0.0624
     38 H           4.8903   -2.3602   -0.6492 H       1  UNL1        0.0626
     39 H           7.1423   -2.8172    0.0152 H       1  UNL1        0.0646
     40 H           7.5994    1.1260    1.2171 H       1  UNL1        0.0646
     41 H           5.3274    1.6109    0.5525 H       1  UNL1        0.0626
@<TRIPOS>BOND
     1     1     2    2
     2     2     3   am
     3     2    20    1
     4     3     4    1
     5     4     5    1
     6     5     6    1
     7     6     7   am
     8     7     8    2
     9     7     9    1
    10     9    10   ar
    11     9    19   ar
    12    10    11   ar
    13    11    12   ar
    14    12    13    2
    15    12    14   ar
    16    14    15   ar
    17    14    19   ar
    18    15    16   ar
    19    16    17   ar
    20    17    18   ar
    21    18    19   ar
    22    20    21   ar
    23    20    26   ar
    24    21    22   ar
    25    22    23   ar
    26    23    24    1
    27    23    25   ar
    28    25    26   ar
    29     3    27    1
    30     4    28    1
    31     4    29    1
    32     5    30    1
    33     5    31    1
    34     6    32    1
    35    11    33    1
    36    15    34    1
    37    16    35    1
    38    17    36    1
    39    18    37    1
    40    21    38    1
    41    22    39    1
    42    25    40    1
    43    26    41    1
@<TRIPOS>MOLECULE
../data/bude_mols_rdkit_confs2/molecule_34.pdb
 41 43 0 0 0
SMALL
GASTEIGER

@<TRIPOS>ATOM
      1  O1         2.7490   -1.5800    0.1520 O.2     1  UNL1       -0.2702
      2  C1         3.2390   -0.4580   -0.1160 C.2     1  UNL1        0.2441
      3  N1         2.3800    0.6140   -0.4440 N.am    1  UNL1       -0.3099
      4  C2         0.9320    0.5100   -0.4910 C.3     1  UNL1        0.0275
      5  C3         0.4390    0.1270    0.8770 C.3     1  UNL1        0.0275
      6  N2        -1.0030    0.0220    0.8630 N.am    1  UNL1       -0.3085
      7  C4        -1.6860   -0.9030    0.0460 C.2     1  UNL1        0.2648
      8  O2        -0.9680   -1.6730   -0.6730 O.2     1  UNL1       -0.2684
      9  C5        -3.1240   -1.0610   -0.0420 C.ar    1  UNL1        0.1533
     10  N3        -3.6650   -2.3180   -0.0120 N.ar    1  UNL1       -0.1656
     11  N4        -4.9600   -2.5430   -0.1000 N.ar    1  UNL1       -0.2420
     12  C6        -5.8510   -1.5490   -0.2250 C.ar    1  UNL1        0.2725
     13  O3        -7.1000   -1.7970   -0.3050 O.2     1  UNL1       -0.2658
     14  C7        -5.3730   -0.2690   -0.2630 C.ar    1  UNL1        0.0501
     15  C8        -6.2360    0.7800   -0.4180 C.ar    1  UNL1       -0.0487
     16  C9        -5.7950    2.0740   -0.4910 C.ar    1  UNL1       -0.0610
     17  C10       -4.4410    2.3110   -0.4050 C.ar    1  UNL1       -0.0611
     18  C11       -3.5250    1.2830   -0.2470 C.ar    1  UNL1       -0.0516
     19  C12       -3.9990   -0.0110   -0.1730 C.ar    1  UNL1        0.0195
     20  C13        4.6700   -0.2740   -0.0870 C.ar    1  UNL1        0.0369
     21  C14        5.4680   -1.4000    0.1600 C.ar    1  UNL1       -0.0469
     22  C15        6.8400   -1.3340    0.2110 C.ar    1  UNL1       -0.0257
     23  C16        7.4570   -0.1070    0.0090 C.ar    1  UNL1        0.1234
     24  F1         8.8140   -0.0950    0.0690 F       1  UNL1       -0.2055
     25  C17        6.7100    1.0200   -0.2360 C.ar    1  UNL1       -0.0257
     26  C18        5.3230    0.9210   -0.2810 C.ar    1  UNL1       -0.0469
     27 H           2.7877    1.4852   -0.6537 H       1  UNL1        0.1491
     28 H           0.6463   -0.2381   -1.2006 H       1  UNL1        0.0477
     29 H           0.5056    1.4457   -0.7868 H       1  UNL1        0.0477
     30 H           0.7345    0.8741    1.5837 H       1  UNL1        0.0477
     31 H           0.8605   -0.8165    1.1545 H       1  UNL1        0.0477
     32 H          -1.5275    0.6181    1.4451 H       1  UNL1        0.1491
     33 H          -5.2844   -3.4721   -0.0731 H       1  UNL1        0.1921
     34 H          -7.2485    0.5910   -0.4818 H       1  UNL1        0.0625
     35 H          -6.4613    2.8534   -0.6077 H       1  UNL1        0.0618
     36 H          -4.0983    3.2829   -0.4598 H       1  UNL1        0.0618
     37 H          -2.5138    1.4802   -0.1862 H       1  UNL1        0.0624
     38 H           5.0084   -2.3119    0.3090 H       1  UNL1        0.0626
     39 H           7.4007   -2.1804    0.3959 H       1  UNL1        0.0646
     40 H           7.1729    1.9302   -0.3850 H       1  UNL1        0.0646
     41 H           4.7668    1.7705   -0.4657 H       1  UNL1        0.0626
@<TRIPOS>BOND
     1     1     2    2
     2     2     3   am
     3     2    20    1
     4     3     4    1
     5     4     5    1
     6     5     6    1
     7     6     7   am
     8     7     8    2
     9     7     9    1
    10     9    10   ar
    11     9    19   ar
    12    10    11   ar
    13    11    12   ar
    14    12    13    2
    15    12    14   ar
    16    14    15   ar
    17    14    19   ar
    18    15    16   ar
    19    16    17   ar
    20    17    18   ar
    21    18    19   ar
    22    20    21   ar
    23    20    26   ar
    24    21    22   ar
    25    22    23   ar
    26    23    24    1
    27    23    25   ar
    28    25    26   ar
    29     3    27    1
    30     4    28    1
    31     4    29    1
    32     5    30    1
    33     5    31    1
    34     6    32    1
    35    11    33    1
    36    15    34    1
    37    16    35    1
    38    17    36    1
    39    18    37    1
    40    21    38    1
    41    22    39    1
    42    25    40    1
    43    26    41    1
@<TRIPOS>MOLECULE
../data/bude_mols_rdkit_confs2/molecule_34.pdb
 41 43 0 0 0
SMALL
GASTEIGER

@<TRIPOS>ATOM
      1  O1         2.9630   -1.4880   -0.4380 O.2     1  UNL1       -0.2702
      2  C1         3.3860   -0.4940    0.2340 C.2     1  UNL1        0.2441
      3  N1         2.4510    0.1950    1.0400 N.am    1  UNL1       -0.3099
      4  C2         1.0500   -0.1340    1.1600 C.3     1  UNL1        0.0275
      5  C3         0.4050    0.0020   -0.1860 C.3     1  UNL1        0.0275
      6  N2        -1.0190   -0.3180   -0.0940 N.am    1  UNL1       -0.3085
      7  C4        -1.8370   -0.2570   -1.2480 C.2     1  UNL1        0.2648
      8  O2        -1.2610    0.0640   -2.3370 O.2     1  UNL1       -0.2684
      9  C5        -3.2500   -0.5500   -1.2170 C.ar    1  UNL1        0.1533
     10  N3        -3.8190   -1.3580   -2.1660 N.ar    1  UNL1       -0.1656
     11  N4        -5.0950   -1.6500   -2.2070 N.ar    1  UNL1       -0.2420
     12  C6        -5.9380   -1.1560   -1.2920 C.ar    1  UNL1        0.2725
     13  O3        -7.1780   -1.4280   -1.3130 O.2     1  UNL1       -0.2658
     14  C7        -5.4390   -0.3310   -0.3040 C.ar    1  UNL1        0.0501
     15  C8        -6.2940    0.2180    0.6370 C.ar    1  UNL1       -0.0487
     16  C9        -5.8360    1.0640    1.6100 C.ar    1  UNL1       -0.0610
     17  C10       -4.4970    1.3870    1.6670 C.ar    1  UNL1       -0.0611
     18  C11       -3.6520    0.8350    0.7250 C.ar    1  UNL1       -0.0516
     19  C12       -4.0790   -0.0210   -0.2640 C.ar    1  UNL1        0.0195
     20  C13        4.8030   -0.1110    0.1460 C.ar    1  UNL1        0.0369
     21  C14        5.3360    0.9480    0.8340 C.ar    1  UNL1       -0.0469
     22  C15        6.6940    1.2650    0.7100 C.ar    1  UNL1       -0.0257
     23  C16        7.5180    0.5190   -0.1040 C.ar    1  UNL1        0.1234
     24  F1         8.8500    0.8360   -0.2210 F       1  UNL1       -0.2055
     25  C17        6.9960   -0.5450   -0.7990 C.ar    1  UNL1       -0.0257
     26  C18        5.6620   -0.8510   -0.6730 C.ar    1  UNL1       -0.0469
     27 H           2.7819    0.9614    1.5619 H       1  UNL1        0.1491
     28 H           0.5817    0.5341    1.8523 H       1  UNL1        0.0477
     29 H           0.9413   -1.1373    1.5155 H       1  UNL1        0.0477
     30 H           0.8752   -0.6696   -0.8735 H       1  UNL1        0.0477
     31 H           0.5167    1.0096   -0.5283 H       1  UNL1        0.0477
     32 H          -1.4096   -0.5763    0.7720 H       1  UNL1        0.1491
     33 H          -5.4376   -2.2387   -2.9178 H       1  UNL1        0.1921
     34 H          -7.2985   -0.0161    0.6036 H       1  UNL1        0.0625
     35 H          -6.4925    1.4600    2.3008 H       1  UNL1        0.0618
     36 H          -4.1360    2.0242    2.3941 H       1  UNL1        0.0618
     37 H          -2.6495    1.0766    0.7647 H       1  UNL1        0.0624
     38 H           4.7316    1.5160    1.4481 H       1  UNL1        0.0626
     39 H           7.0816    2.0654    1.2335 H       1  UNL1        0.0646
     40 H           7.6024   -1.1115   -1.4125 H       1  UNL1        0.0646
     41 H           5.2818   -1.6528   -1.1998 H       1  UNL1        0.0626
@<TRIPOS>BOND
     1     1     2    2
     2     2     3   am
     3     2    20    1
     4     3     4    1
     5     4     5    1
     6     5     6    1
     7     6     7   am
     8     7     8    2
     9     7     9    1
    10     9    10   ar
    11     9    19   ar
    12    10    11   ar
    13    11    12   ar
    14    12    13    2
    15    12    14   ar
    16    14    15   ar
    17    14    19   ar
    18    15    16   ar
    19    16    17   ar
    20    17    18   ar
    21    18    19   ar
    22    20    21   ar
    23    20    26   ar
    24    21    22   ar
    25    22    23   ar
    26    23    24    1
    27    23    25   ar
    28    25    26   ar
    29     3    27    1
    30     4    28    1
    31     4    29    1
    32     5    30    1
    33     5    31    1
    34     6    32    1
    35    11    33    1
    36    15    34    1
    37    16    35    1
    38    17    36    1
    39    18    37    1
    40    21    38    1
    41    22    39    1
    42    25    40    1
    43    26    41    1
@<TRIPOS>MOLECULE
../data/bude_mols_rdkit_confs2/molecule_34.pdb
 41 43 0 0 0
SMALL
GASTEIGER

@<TRIPOS>ATOM
      1  O1         2.5520   -0.3040    1.2600 O.2     1  UNL1       -0.2702
      2  C1         3.2750   -0.3960    0.2100 C.2     1  UNL1        0.2441
      3  N1         2.6300   -0.6000   -1.0260 N.am    1  UNL1       -0.3099
      4  C2         1.2080   -0.6970   -1.1120 C.3     1  UNL1        0.0275
      5  C3         0.4670    0.5120   -0.6490 C.3     1  UNL1        0.0275
      6  N2        -0.9840    0.3760   -0.7620 N.am    1  UNL1       -0.3085
      7  C4        -1.7330   -0.6000   -0.0950 C.2     1  UNL1        0.2648
      8  O2        -1.0940   -1.4320    0.6410 O.2     1  UNL1       -0.2684
      9  C5        -3.1600   -0.8060   -0.1320 C.ar    1  UNL1        0.1533
     10  N3        -3.6760   -2.0640   -0.2250 N.ar    1  UNL1       -0.1656
     11  N4        -4.9570   -2.3410   -0.2470 N.ar    1  UNL1       -0.2420
     12  C6        -5.8900   -1.3750   -0.1770 C.ar    1  UNL1        0.2725
     13  O3        -7.1230   -1.6000   -0.1970 O.2     1  UNL1       -0.2658
     14  C7        -5.4260   -0.0740   -0.0790 C.ar    1  UNL1        0.0501
     15  C8        -6.3360    0.9450    0.0260 C.ar    1  UNL1       -0.0487
     16  C9        -5.9600    2.2560    0.1580 C.ar    1  UNL1       -0.0610
     17  C10       -4.6080    2.5300    0.1850 C.ar    1  UNL1       -0.0611
     18  C11       -3.6770    1.5270    0.0810 C.ar    1  UNL1       -0.0516
     19  C12       -4.0660    0.2160   -0.0540 C.ar    1  UNL1        0.0195
     20  C13        4.7110   -0.2970    0.2600 C.ar    1  UNL1        0.0369
     21  C14        5.3680   -0.3940    1.4680 C.ar    1  UNL1       -0.0469
     22  C15        6.7460   -0.2950    1.5410 C.ar    1  UNL1       -0.0257
     23  C16        7.4530   -0.0970    0.3730 C.ar    1  UNL1        0.1234
     24  F1         8.8040   -0.0010    0.4560 F       1  UNL1       -0.2055
     25  C17        6.8260    0.0030   -0.8430 C.ar    1  UNL1       -0.0257
     26  C18        5.4260   -0.1010   -0.8880 C.ar    1  UNL1       -0.0469
     27 H           3.1699   -0.6771   -1.8457 H       1  UNL1        0.1491
     28 H           0.8948   -1.5278   -0.5149 H       1  UNL1        0.0477
     29 H           0.9772   -0.8111   -2.1506 H       1  UNL1        0.0477
     30 H           0.7773    1.3482   -1.2401 H       1  UNL1        0.0477
     31 H           0.6941    0.6466    0.3879 H       1  UNL1        0.0477
     32 H          -1.4637    1.0098   -1.3429 H       1  UNL1        0.1491
     33 H          -5.2435   -3.2803   -0.3166 H       1  UNL1        0.1921
     34 H          -7.3422    0.7165    0.0049 H       1  UNL1        0.0625
     35 H          -6.6611    3.0095    0.2343 H       1  UNL1        0.0618
     36 H          -4.2910    3.5070    0.2852 H       1  UNL1        0.0618
     37 H          -2.6720    1.7603    0.1045 H       1  UNL1        0.0624
     38 H           4.8232   -0.5429    2.3317 H       1  UNL1        0.0626
     39 H           7.2335   -0.3675    2.4477 H       1  UNL1        0.0646
     40 H           7.3714    0.1515   -1.7064 H       1  UNL1        0.0646
     41 H           4.9347   -0.0290   -1.7927 H       1  UNL1        0.0626
@<TRIPOS>BOND
     1     1     2    2
     2     2     3   am
     3     2    20    1
     4     3     4    1
     5     4     5    1
     6     5     6    1
     7     6     7   am
     8     7     8    2
     9     7     9    1
    10     9    10   ar
    11     9    19   ar
    12    10    11   ar
    13    11    12   ar
    14    12    13    2
    15    12    14   ar
    16    14    15   ar
    17    14    19   ar
    18    15    16   ar
    19    16    17   ar
    20    17    18   ar
    21    18    19   ar
    22    20    21   ar
    23    20    26   ar
    24    21    22   ar
    25    22    23   ar
    26    23    24    1
    27    23    25   ar
    28    25    26   ar
    29     3    27    1
    30     4    28    1
    31     4    29    1
    32     5    30    1
    33     5    31    1
    34     6    32    1
    35    11    33    1
    36    15    34    1
    37    16    35    1
    38    17    36    1
    39    18    37    1
    40    21    38    1
    41    22    39    1
    42    25    40    1
    43    26    41    1
@<TRIPOS>MOLECULE
../data/bude_mols_rdkit_confs2/molecule_34.pdb
 41 43 0 0 0
SMALL
GASTEIGER

@<TRIPOS>ATOM
      1  O1         2.5420   -1.1620   -0.6850 O.2     1  UNL1       -0.2702
      2  C1         3.2670   -0.4600    0.0850 C.2     1  UNL1        0.2441
      3  N1         2.6200    0.5330    0.8400 N.am    1  UNL1       -0.3099
      4  C2         1.2140    0.8120    0.8060 C.3     1  UNL1        0.0275
      5  C3         0.7180    1.2200   -0.5530 C.3     1  UNL1        0.0275
      6  N2        -0.7020    1.5060   -0.5940 N.am    1  UNL1       -0.3085
      7  C4        -1.6770    0.4870   -0.2650 C.2     1  UNL1        0.2648
      8  O2        -1.2420   -0.6290    0.0460 O.2     1  UNL1       -0.2684
      9  C5        -3.0680    0.9040   -0.3420 C.ar    1  UNL1        0.1533
     10  N3        -3.3970    2.1750   -0.6910 N.ar    1  UNL1       -0.1656
     11  N4        -4.6210    2.6330   -0.7850 N.ar    1  UNL1       -0.2420
     12  C6        -5.6560    1.8390   -0.5300 C.ar    1  UNL1        0.2725
     13  O3        -6.8250    2.2880   -0.6230 O.2     1  UNL1       -0.2658
     14  C7        -5.4590    0.5330   -0.1670 C.ar    1  UNL1        0.0501
     15  C8        -6.5320   -0.2840    0.0950 C.ar    1  UNL1       -0.0487
     16  C9        -6.3070   -1.5820    0.4550 C.ar    1  UNL1       -0.0610
     17  C10       -5.0310   -2.0720    0.5570 C.ar    1  UNL1       -0.0611
     18  C11       -3.9510   -1.2230    0.2850 C.ar    1  UNL1       -0.0516
     19  C12       -4.1390    0.0850   -0.0790 C.ar    1  UNL1        0.0195
     20  C13        4.6980   -0.7320    0.1280 C.ar    1  UNL1        0.0369
     21  C14        5.5700   -0.0430    0.9160 C.ar    1  UNL1       -0.0469
     22  C15        6.9330   -0.3380    0.9250 C.ar    1  UNL1       -0.0257
     23  C16        7.4430   -1.3410    0.1330 C.ar    1  UNL1        0.1234
     24  F1         8.7570   -1.6660    0.1060 F       1  UNL1       -0.2055
     25  C17        6.5810   -2.0450   -0.6640 C.ar    1  UNL1       -0.0257
     26  C18        5.2390   -1.7360   -0.6570 C.ar    1  UNL1       -0.0469
     27 H           3.1763    1.0806    1.4399 H       1  UNL1        0.1491
     28 H           1.0092    1.6055    1.4939 H       1  UNL1        0.0477
     29 H           0.7065   -0.0927    1.0685 H       1  UNL1        0.0477
     30 H           0.9223    0.4252   -1.2396 H       1  UNL1        0.0477
     31 H           1.2265    2.1250   -0.8124 H       1  UNL1        0.0477
     32 H          -1.0084    2.4061   -0.8492 H       1  UNL1        0.1491
     33 H          -4.7748    3.5698   -1.0458 H       1  UNL1        0.1921
     34 H          -7.4954    0.0784    0.0207 H       1  UNL1        0.0625
     35 H          -7.1080   -2.2019    0.6528 H       1  UNL1        0.0618
     36 H          -4.8683   -3.0537    0.8306 H       1  UNL1        0.0618
     37 H          -2.9899   -1.5913    0.3605 H       1  UNL1        0.0624
     38 H           5.2139    0.7143    1.5199 H       1  UNL1        0.0626
     39 H           7.5672    0.2029    1.5335 H       1  UNL1        0.0646
     40 H           6.9352   -2.8037   -1.2673 H       1  UNL1        0.0646
     41 H           4.6065   -2.2786   -1.2658 H       1  UNL1        0.0626
@<TRIPOS>BOND
     1     1     2    2
     2     2     3   am
     3     2    20    1
     4     3     4    1
     5     4     5    1
     6     5     6    1
     7     6     7   am
     8     7     8    2
     9     7     9    1
    10     9    10   ar
    11     9    19   ar
    12    10    11   ar
    13    11    12   ar
    14    12    13    2
    15    12    14   ar
    16    14    15   ar
    17    14    19   ar
    18    15    16   ar
    19    16    17   ar
    20    17    18   ar
    21    18    19   ar
    22    20    21   ar
    23    20    26   ar
    24    21    22   ar
    25    22    23   ar
    26    23    24    1
    27    23    25   ar
    28    25    26   ar
    29     3    27    1
    30     4    28    1
    31     4    29    1
    32     5    30    1
    33     5    31    1
    34     6    32    1
    35    11    33    1
    36    15    34    1
    37    16    35    1
    38    17    36    1
    39    18    37    1
    40    21    38    1
    41    22    39    1
    42    25    40    1
    43    26    41    1
@<TRIPOS>MOLECULE
../data/bude_mols_rdkit_confs2/molecule_34.pdb
 41 43 0 0 0
SMALL
GASTEIGER

@<TRIPOS>ATOM
      1  O1         3.3150   -0.3520    2.1220 O.2     1  UNL1       -0.2702
      2  C1         3.6080   -0.3090    0.9020 C.2     1  UNL1        0.2441
      3  N1         2.5240   -0.3210   -0.0100 N.am    1  UNL1       -0.3099
      4  C2         1.1320   -0.3810    0.4490 C.3     1  UNL1        0.0275
      5  C3         0.1890   -0.3810   -0.7250 C.3     1  UNL1        0.0275
      6  N2        -1.1870   -0.4410   -0.2480 N.am    1  UNL1       -0.3085
      7  C4        -2.2240   -0.4500   -1.2040 C.2     1  UNL1        0.2648
      8  O2        -1.8720   -0.4250   -2.4370 O.2     1  UNL1       -0.2684
      9  C5        -3.6300   -0.4960   -0.8880 C.ar    1  UNL1        0.1533
     10  N3        -4.4560   -1.3350   -1.5810 N.ar    1  UNL1       -0.1656
     11  N4        -5.7390   -1.4110   -1.3540 N.ar    1  UNL1       -0.2420
     12  C6        -6.3600   -0.6790   -0.4250 C.ar    1  UNL1        0.2725
     13  O3        -7.6110   -0.7710   -0.2200 O.2     1  UNL1       -0.2658
     14  C7        -5.5870    0.1960    0.3150 C.ar    1  UNL1        0.0501
     15  C8        -6.2040    0.9980    1.2710 C.ar    1  UNL1       -0.0487
     16  C9        -5.4750    1.8980    2.0010 C.ar    1  UNL1       -0.0610
     17  C10       -4.1230    2.0070    1.7830 C.ar    1  UNL1       -0.0611
     18  C11       -3.5170    1.2010    0.8260 C.ar    1  UNL1       -0.0516
     19  C12       -4.2290    0.2810    0.0770 C.ar    1  UNL1        0.0195
     20  C13        5.0060   -0.2500    0.5050 C.ar    1  UNL1        0.0369
     21  C14        5.9990   -0.2420    1.4570 C.ar    1  UNL1       -0.0469
     22  C15        7.3500   -0.1870    1.1330 C.ar    1  UNL1       -0.0257
     23  C16        7.7420   -0.1370   -0.2090 C.ar    1  UNL1        0.1234
     24  F1         9.0580   -0.0840   -0.5150 F       1  UNL1       -0.2055
     25  C17        6.7510   -0.1450   -1.1630 C.ar    1  UNL1       -0.0257
     26  C18        5.4140   -0.2010   -0.8110 C.ar    1  UNL1       -0.0469
     27 H           2.7096   -0.2882   -0.9763 H       1  UNL1        0.1491
     28 H           0.9274    0.4697    1.0650 H       1  UNL1        0.0477
     29 H           0.9902   -1.2830    1.0068 H       1  UNL1        0.0477
     30 H           0.3891   -1.2317   -1.3423 H       1  UNL1        0.0477
     31 H           0.3291    0.5150   -1.2928 H       1  UNL1        0.0477
     32 H          -1.3872   -0.4743    0.7154 H       1  UNL1        0.1491
     33 H          -6.2744   -2.0373   -1.8928 H       1  UNL1        0.1921
     34 H          -7.2200    0.9134    1.4309 H       1  UNL1        0.0625
     35 H          -5.9372    2.4896    2.7091 H       1  UNL1        0.0618
     36 H          -3.5616    2.6820    2.3254 H       1  UNL1        0.0618
     37 H          -2.5011    1.2920    0.6688 H       1  UNL1        0.0624
     38 H           5.7301   -0.2783    2.4527 H       1  UNL1        0.0626
     39 H           8.0616   -0.1831    1.8804 H       1  UNL1        0.0646
     40 H           7.0099   -0.1085   -2.1613 H       1  UNL1        0.0646
     41 H           4.7003   -0.2062   -1.5564 H       1  UNL1        0.0626
@<TRIPOS>BOND
     1     1     2    2
     2     2     3   am
     3     2    20    1
     4     3     4    1
     5     4     5    1
     6     5     6    1
     7     6     7   am
     8     7     8    2
     9     7     9    1
    10     9    10   ar
    11     9    19   ar
    12    10    11   ar
    13    11    12   ar
    14    12    13    2
    15    12    14   ar
    16    14    15   ar
    17    14    19   ar
    18    15    16   ar
    19    16    17   ar
    20    17    18   ar
    21    18    19   ar
    22    20    21   ar
    23    20    26   ar
    24    21    22   ar
    25    22    23   ar
    26    23    24    1
    27    23    25   ar
    28    25    26   ar
    29     3    27    1
    30     4    28    1
    31     4    29    1
    32     5    30    1
    33     5    31    1
    34     6    32    1
    35    11    33    1
    36    15    34    1
    37    16    35    1
    38    17    36    1
    39    18    37    1
    40    21    38    1
    41    22    39    1
    42    25    40    1
    43    26    41    1
@<TRIPOS>MOLECULE
../data/bude_mols_rdkit_confs2/molecule_34.pdb
 41 43 0 0 0
SMALL
GASTEIGER

@<TRIPOS>ATOM
      1  O1        -3.0420   -1.6690   -0.7280 O.2     1  UNL1       -0.2702
      2  C1        -3.4800   -0.5940   -0.2490 C.2     1  UNL1        0.2441
      3  N1        -2.5660    0.2120    0.4580 N.am    1  UNL1       -0.3099
      4  C2        -1.1730   -0.1500    0.6450 C.3     1  UNL1        0.0275
      5  C3        -0.4380    0.8880    1.4310 C.3     1  UNL1        0.0275
      6  N2         0.9580    0.5680    1.6430 N.am    1  UNL1       -0.3085
      7  C4         1.8930    0.4020    0.5370 C.2     1  UNL1        0.2648
      8  O2         1.3520    0.5690   -0.5790 O.2     1  UNL1       -0.2684
      9  C5         3.2740    0.0790    0.8060 C.ar    1  UNL1        0.1533
     10  N3         3.6130   -0.0590    2.1180 N.ar    1  UNL1       -0.1656
     11  N4         4.8330   -0.3510    2.5120 N.ar    1  UNL1       -0.2420
     12  C6         5.7460   -0.5090    1.5420 C.ar    1  UNL1        0.2725
     13  O3         6.9220   -0.7890    1.8880 O.2     1  UNL1       -0.2658
     14  C7         5.4910   -0.3880    0.2040 C.ar    1  UNL1        0.0501
     15  C8         6.4890   -0.5660   -0.7450 C.ar    1  UNL1       -0.0487
     16  C9         6.1890   -0.4350   -2.0850 C.ar    1  UNL1       -0.0610
     17  C10        4.9000   -0.1290   -2.4470 C.ar    1  UNL1       -0.0611
     18  C11        3.8750    0.0560   -1.5170 C.ar    1  UNL1       -0.0516
     19  C12        4.1880   -0.0780   -0.1910 C.ar    1  UNL1        0.0195
     20  C13       -4.8750   -0.2300   -0.4360 C.ar    1  UNL1        0.0369
     21  C14       -5.7120   -1.0700   -1.1400 C.ar    1  UNL1       -0.0469
     22  C15       -7.0430   -0.8030   -1.3630 C.ar    1  UNL1       -0.0257
     23  C16       -7.5440    0.3840   -0.8390 C.ar    1  UNL1        0.1234
     24  F1        -8.8430    0.6990   -1.0260 F       1  UNL1       -0.2055
     25  C17       -6.7540    1.2580   -0.1290 C.ar    1  UNL1       -0.0257
     26  C18       -5.4270    0.9220    0.0540 C.ar    1  UNL1       -0.0469
     27 H          -2.8869    1.0595    0.8428 H       1  UNL1        0.1491
     28 H          -0.7090   -0.2536   -0.3136 H       1  UNL1        0.0477
     29 H          -1.1355   -1.0713    1.1879 H       1  UNL1        0.0477
     30 H          -0.9114    0.9890    2.3852 H       1  UNL1        0.0477
     31 H          -0.4714    1.7952    0.8646 H       1  UNL1        0.0477
     32 H           1.2867    0.4589    2.5646 H       1  UNL1        0.1491
     33 H           5.0632   -0.4481    3.4643 H       1  UNL1        0.1921
     34 H           7.4507   -0.7952   -0.4491 H       1  UNL1        0.0625
     35 H           6.9196   -0.5645   -2.8022 H       1  UNL1        0.0618
     36 H           4.6793   -0.0315   -3.4504 H       1  UNL1        0.0618
     37 H           2.9152    0.2857   -1.8186 H       1  UNL1        0.0624
     38 H          -5.3190   -1.9454   -1.5197 H       1  UNL1        0.0626
     39 H          -7.6422   -1.4536   -1.8947 H       1  UNL1        0.0646
     40 H          -7.1399    2.1352    0.2540 H       1  UNL1        0.0646
     41 H          -4.8239    1.5697    0.5848 H       1  UNL1        0.0626
@<TRIPOS>BOND
     1     1     2    2
     2     2     3   am
     3     2    20    1
     4     3     4    1
     5     4     5    1
     6     5     6    1
     7     6     7   am
     8     7     8    2
     9     7     9    1
    10     9    10   ar
    11     9    19   ar
    12    10    11   ar
    13    11    12   ar
    14    12    13    2
    15    12    14   ar
    16    14    15   ar
    17    14    19   ar
    18    15    16   ar
    19    16    17   ar
    20    17    18   ar
    21    18    19   ar
    22    20    21   ar
    23    20    26   ar
    24    21    22   ar
    25    22    23   ar
    26    23    24    1
    27    23    25   ar
    28    25    26   ar
    29     3    27    1
    30     4    28    1
    31     4    29    1
    32     5    30    1
    33     5    31    1
    34     6    32    1
    35    11    33    1
    36    15    34    1
    37    16    35    1
    38    17    36    1
    39    18    37    1
    40    21    38    1
    41    22    39    1
    42    25    40    1
    43    26    41    1
@<TRIPOS>MOLECULE
../data/bude_mols_rdkit_confs2/molecule_34.pdb
 41 43 0 0 0
SMALL
GASTEIGER

@<TRIPOS>ATOM
      1  O1         2.7700   -1.4310   -0.5660 O.2     1  UNL1       -0.2702
      2  C1         3.2770   -0.4820    0.0930 C.2     1  UNL1        0.2441
      3  N1         2.3950    0.4300    0.7250 N.am    1  UNL1       -0.3099
      4  C2         0.9520    0.3560    0.6680 C.3     1  UNL1        0.0275
      5  C3         0.4220    0.4630   -0.7460 C.3     1  UNL1        0.0275
      6  N2        -1.0240    0.3890   -0.7860 N.am    1  UNL1       -0.3085
      7  C4        -1.8820    1.2840   -0.1510 C.2     1  UNL1        0.2648
      8  O2        -1.3460    2.2470    0.4900 O.2     1  UNL1       -0.2684
      9  C5        -3.3280    1.2580   -0.1390 C.ar    1  UNL1        0.1533
     10  N3        -4.0340    2.4000   -0.3640 N.ar    1  UNL1       -0.1656
     11  N4        -5.3380    2.4630   -0.3580 N.ar    1  UNL1       -0.2420
     12  C6        -6.0920    1.3850   -0.1240 C.ar    1  UNL1        0.2725
     13  O3        -7.3470    1.3860   -0.1070 O.2     1  UNL1       -0.2658
     14  C7        -5.4350    0.1800    0.1180 C.ar    1  UNL1        0.0501
     15  C8        -6.1650   -0.9570    0.3920 C.ar    1  UNL1       -0.0487
     16  C9        -5.5530   -2.1640    0.6650 C.ar    1  UNL1       -0.0610
     17  C10       -4.1730   -2.2070    0.6590 C.ar    1  UNL1       -0.0611
     18  C11       -3.4260   -1.0870    0.3870 C.ar    1  UNL1       -0.0516
     19  C12       -4.0350    0.1120    0.1120 C.ar    1  UNL1        0.0195
     20  C13        4.7290   -0.3880    0.1610 C.ar    1  UNL1        0.0369
     21  C14        5.5090   -1.3210   -0.4840 C.ar    1  UNL1       -0.0469
     22  C15        6.8880   -1.2860   -0.4580 C.ar    1  UNL1       -0.0257
     23  C16        7.5190   -0.2890    0.2350 C.ar    1  UNL1        0.1234
     24  F1         8.8820   -0.2380    0.2730 F       1  UNL1       -0.2055
     25  C17        6.7780    0.6650    0.8960 C.ar    1  UNL1       -0.0257
     26  C18        5.3930    0.6020    0.8500 C.ar    1  UNL1       -0.0469
     27 H           2.7940    1.1678    1.2405 H       1  UNL1        0.1491
     28 H           0.5440    1.1566    1.2490 H       1  UNL1        0.0477
     29 H           0.6597   -0.5983    1.0537 H       1  UNL1        0.0477
     30 H           0.8260   -0.3383   -1.3288 H       1  UNL1        0.0477
     31 H           0.7173    1.4127   -1.1406 H       1  UNL1        0.0477
     32 H          -1.4297   -0.3469   -1.2990 H       1  UNL1        0.1491
     33 H          -5.7771    3.3271   -0.5303 H       1  UNL1        0.1921
     34 H          -7.1957   -0.9045    0.3931 H       1  UNL1        0.0625
     35 H          -6.1102   -3.0087    0.8675 H       1  UNL1        0.0618
     36 H          -3.6936   -3.0979    0.8628 H       1  UNL1        0.0618
     37 H          -2.3958   -1.1476    0.3894 H       1  UNL1        0.0624
     38 H           5.0431   -2.0778   -1.0086 H       1  UNL1        0.0626
     39 H           7.4375   -2.0038   -0.9557 H       1  UNL1        0.0646
     40 H           7.2483    1.4193    1.4203 H       1  UNL1        0.0646
     41 H           4.8432    1.3196    1.3478 H       1  UNL1        0.0626
@<TRIPOS>BOND
     1     1     2    2
     2     2     3   am
     3     2    20    1
     4     3     4    1
     5     4     5    1
     6     5     6    1
     7     6     7   am
     8     7     8    2
     9     7     9    1
    10     9    10   ar
    11     9    19   ar
    12    10    11   ar
    13    11    12   ar
    14    12    13    2
    15    12    14   ar
    16    14    15   ar
    17    14    19   ar
    18    15    16   ar
    19    16    17   ar
    20    17    18   ar
    21    18    19   ar
    22    20    21   ar
    23    20    26   ar
    24    21    22   ar
    25    22    23   ar
    26    23    24    1
    27    23    25   ar
    28    25    26   ar
    29     3    27    1
    30     4    28    1
    31     4    29    1
    32     5    30    1
    33     5    31    1
    34     6    32    1
    35    11    33    1
    36    15    34    1
    37    16    35    1
    38    17    36    1
    39    18    37    1
    40    21    38    1
    41    22    39    1
    42    25    40    1
    43    26    41    1
@<TRIPOS>MOLECULE
../data/bude_mols_rdkit_confs2/molecule_34.pdb
 41 43 0 0 0
SMALL
GASTEIGER

@<TRIPOS>ATOM
      1  O1         2.8780   -0.1830   -1.6840 O.2     1  UNL1       -0.2702
      2  C1         3.5110   -0.5800   -0.6740 C.2     1  UNL1        0.2441
      3  N1         2.8080   -1.2650    0.3360 N.am    1  UNL1       -0.3099
      4  C2         1.3870   -1.5290    0.2530 C.3     1  UNL1        0.0275
      5  C3         0.5590   -0.2780    0.1600 C.3     1  UNL1        0.0275
      6  N2        -0.8260   -0.6430    0.0830 N.am    1  UNL1       -0.3085
      7  C4        -1.8650    0.3620   -0.0160 C.2     1  UNL1        0.2648
      8  O2        -1.4730    1.5310   -0.0280 O.2     1  UNL1       -0.2684
      9  C5        -3.2230   -0.1220   -0.0870 C.ar    1  UNL1        0.1533
     10  N3        -3.4710   -1.4760   -0.0610 N.ar    1  UNL1       -0.1656
     11  N4        -4.6490   -2.0110   -0.1190 N.ar    1  UNL1       -0.2420
     12  C6        -5.7230   -1.2220   -0.2130 C.ar    1  UNL1        0.2725
     13  O3        -6.9060   -1.6920   -0.2740 O.2     1  UNL1       -0.2658
     14  C7        -5.6170    0.1550   -0.2490 C.ar    1  UNL1        0.0501
     15  C8        -6.7270    0.9370   -0.3450 C.ar    1  UNL1       -0.0487
     16  C9        -6.6030    2.3210   -0.3800 C.ar    1  UNL1       -0.0610
     17  C10       -5.3430    2.8410   -0.3160 C.ar    1  UNL1       -0.0611
     18  C11       -4.1900    2.0490   -0.2170 C.ar    1  UNL1       -0.0516
     19  C12       -4.3310    0.6900   -0.1840 C.ar    1  UNL1        0.0195
     20  C13        4.9280   -0.3100   -0.6030 C.ar    1  UNL1        0.0369
     21  C14        5.5870    0.3710   -1.6220 C.ar    1  UNL1       -0.0469
     22  C15        6.9220    0.6570   -1.6140 C.ar    1  UNL1       -0.0257
     23  C16        7.6600    0.2430   -0.5300 C.ar    1  UNL1        0.1234
     24  F1         9.0060    0.4980   -0.4590 F       1  UNL1       -0.2055
     25  C17        7.0480   -0.4320    0.4970 C.ar    1  UNL1       -0.0257
     26  C18        5.6810   -0.7120    0.4670 C.ar    1  UNL1       -0.0469
     27 H           3.3018   -1.5762    1.1288 H       1  UNL1        0.1491
     28 H           1.0896   -2.0700    1.1270 H       1  UNL1        0.0477
     29 H           1.2186   -2.0902   -0.6423 H       1  UNL1        0.0477
     30 H           0.8350    0.2713   -0.7158 H       1  UNL1        0.0477
     31 H           0.7259    0.3325    1.0227 H       1  UNL1        0.0477
     32 H          -1.0756   -1.5952    0.0977 H       1  UNL1        0.1491
     33 H          -4.7521   -2.9898   -0.0941 H       1  UNL1        0.1921
     34 H          -7.6616    0.5019   -0.3918 H       1  UNL1        0.0625
     35 H          -7.4318    2.9317   -0.4516 H       1  UNL1        0.0618
     36 H          -5.2333    3.8668   -0.3417 H       1  UNL1        0.0618
     37 H          -3.2549    2.4831   -0.1701 H       1  UNL1        0.0624
     38 H           5.0315    0.6794   -2.4352 H       1  UNL1        0.0626
     39 H           7.3626    1.1670   -2.3955 H       1  UNL1        0.0646
     40 H           7.6096   -0.7383    1.3068 H       1  UNL1        0.0646
     41 H           5.2394   -1.2205    1.2490 H       1  UNL1        0.0626
@<TRIPOS>BOND
     1     1     2    2
     2     2     3   am
     3     2    20    1
     4     3     4    1
     5     4     5    1
     6     5     6    1
     7     6     7   am
     8     7     8    2
     9     7     9    1
    10     9    10   ar
    11     9    19   ar
    12    10    11   ar
    13    11    12   ar
    14    12    13    2
    15    12    14   ar
    16    14    15   ar
    17    14    19   ar
    18    15    16   ar
    19    16    17   ar
    20    17    18   ar
    21    18    19   ar
    22    20    21   ar
    23    20    26   ar
    24    21    22   ar
    25    22    23   ar
    26    23    24    1
    27    23    25   ar
    28    25    26   ar
    29     3    27    1
    30     4    28    1
    31     4    29    1
    32     5    30    1
    33     5    31    1
    34     6    32    1
    35    11    33    1
    36    15    34    1
    37    16    35    1
    38    17    36    1
    39    18    37    1
    40    21    38    1
    41    22    39    1
    42    25    40    1
    43    26    41    1
@<TRIPOS>MOLECULE
../data/bude_mols_rdkit_confs2/molecule_34.pdb
 41 43 0 0 0
SMALL
GASTEIGER

@<TRIPOS>ATOM
      1  O1         1.2850   -0.3160   -0.2310 O.2     1  UNL1       -0.2702
      2  C1         2.3320    0.3190   -0.4630 C.2     1  UNL1        0.2441
      3  N1         2.2840    1.3380   -1.4180 N.am    1  UNL1       -0.3099
      4  C2         1.2270    1.8280   -2.2220 C.3     1  UNL1        0.0275
      5  C3         0.0280    2.3920   -1.5860 C.3     1  UNL1        0.0275
      6  N2        -0.7520    1.4310   -0.8530 N.am    1  UNL1       -0.3085
      7  C4        -1.4060    0.3370   -1.4630 C.2     1  UNL1        0.2648
      8  O2        -1.2450    0.2330   -2.7300 O.2     1  UNL1       -0.2684
      9  C5        -2.2180   -0.6700   -0.8280 C.ar    1  UNL1        0.1533
     10  N3        -2.0080   -1.9590   -1.2100 N.ar    1  UNL1       -0.1656
     11  N4        -2.7230   -2.9070   -0.6730 N.ar    1  UNL1       -0.2420
     12  C6        -3.6670   -2.7040    0.2440 C.ar    1  UNL1        0.2725
     13  O3        -4.3370   -3.6440    0.7420 O.2     1  UNL1       -0.2658
     14  C7        -3.9330   -1.4180    0.6740 C.ar    1  UNL1        0.0501
     15  C8        -4.9160   -1.1700    1.5940 C.ar    1  UNL1       -0.0487
     16  C9        -5.1820    0.1130    1.9800 C.ar    1  UNL1       -0.0610
     17  C10       -4.4510    1.1150    1.4280 C.ar    1  UNL1       -0.0611
     18  C11       -3.4520    0.8960    0.4980 C.ar    1  UNL1       -0.0516
     19  C12       -3.1760   -0.3870    0.1080 C.ar    1  UNL1        0.0195
     20  C13        3.5130   -0.0750    0.2970 C.ar    1  UNL1        0.0369
     21  C14        4.6980    0.6230    0.3030 C.ar    1  UNL1       -0.0469
     22  C15        5.8090    0.2150    1.0380 C.ar    1  UNL1       -0.0257
     23  C16        5.7570   -0.9270    1.8010 C.ar    1  UNL1        0.1234
     24  F1         6.8280   -1.3540    2.5330 F       1  UNL1       -0.2055
     25  C17        4.5760   -1.6390    1.8070 C.ar    1  UNL1       -0.0257
     26  C18        3.4870   -1.2180    1.0710 C.ar    1  UNL1       -0.0469
     27 H           3.1424    1.7996   -1.5571 H       1  UNL1        0.1491
     28 H           0.8995    1.0135   -2.8337 H       1  UNL1        0.0477
     29 H           1.6628    2.6686   -2.7204 H       1  UNL1        0.0477
     30 H          -0.5905    2.8153   -2.3497 H       1  UNL1        0.0477
     31 H           0.3661    3.1205   -0.8790 H       1  UNL1        0.0477
     32 H          -0.8342    1.5409    0.1219 H       1  UNL1        0.1491
     33 H          -2.5545   -3.8323   -0.9638 H       1  UNL1        0.1921
     34 H          -5.4560   -1.9523    1.9958 H       1  UNL1        0.0625
     35 H          -5.9194    0.3153    2.6731 H       1  UNL1        0.0618
     36 H          -4.6505    2.0857    1.7162 H       1  UNL1        0.0618
     37 H          -2.9217    1.6885    0.1032 H       1  UNL1        0.0624
     38 H           4.7671    1.4849   -0.2604 H       1  UNL1        0.0626
     39 H           6.6763    0.7736    1.0094 H       1  UNL1        0.0646
     40 H           4.5054   -2.5004    2.3709 H       1  UNL1        0.0646
     41 H           2.6210   -1.7785    1.1003 H       1  UNL1        0.0626
@<TRIPOS>BOND
     1     1     2    2
     2     2     3   am
     3     2    20    1
     4     3     4    1
     5     4     5    1
     6     5     6    1
     7     6     7   am
     8     7     8    2
     9     7     9    1
    10     9    10   ar
    11     9    19   ar
    12    10    11   ar
    13    11    12   ar
    14    12    13    2
    15    12    14   ar
    16    14    15   ar
    17    14    19   ar
    18    15    16   ar
    19    16    17   ar
    20    17    18   ar
    21    18    19   ar
    22    20    21   ar
    23    20    26   ar
    24    21    22   ar
    25    22    23   ar
    26    23    24    1
    27    23    25   ar
    28    25    26   ar
    29     3    27    1
    30     4    28    1
    31     4    29    1
    32     5    30    1
    33     5    31    1
    34     6    32    1
    35    11    33    1
    36    15    34    1
    37    16    35    1
    38    17    36    1
    39    18    37    1
    40    21    38    1
    41    22    39    1
    42    25    40    1
    43    26    41    1
@<TRIPOS>MOLECULE
../data/bude_mols_rdkit_confs2/molecule_34.pdb
 41 43 0 0 0
SMALL
GASTEIGER

@<TRIPOS>ATOM
      1  O1         3.2200    0.2160    1.7310 O.2     1  UNL1       -0.2702
      2  C1         3.5470    0.0510    0.5130 C.2     1  UNL1        0.2441
      3  N1         2.5260    0.1470   -0.4500 N.am    1  UNL1       -0.3099
      4  C2         1.1520    0.4190   -0.0880 C.3     1  UNL1        0.0275
      5  C3         0.5460   -0.6180    0.8030 C.3     1  UNL1        0.0275
      6  N2        -0.8270   -0.3090    1.1440 N.am    1  UNL1       -0.3085
      7  C4        -1.8680   -0.2020    0.1420 C.2     1  UNL1        0.2648
      8  O2        -1.5140   -0.3960   -1.0340 O.2     1  UNL1       -0.2684
      9  C5        -3.2070    0.1180    0.6060 C.ar    1  UNL1        0.1533
     10  N3        -3.4350    0.3050    1.9400 N.ar    1  UNL1       -0.1656
     11  N4        -4.6320    0.5920    2.3710 N.ar    1  UNL1       -0.2420
     12  C6        -5.6760    0.7190    1.5680 C.ar    1  UNL1        0.2725
     13  O3        -6.8460    1.0010    1.9900 O.2     1  UNL1       -0.2658
     14  C7        -5.5140    0.5440    0.2170 C.ar    1  UNL1        0.0501
     15  C8        -6.5740    0.6660   -0.6620 C.ar    1  UNL1       -0.0487
     16  C9        -6.4710    0.5020   -2.0220 C.ar    1  UNL1       -0.0610
     17  C10       -5.2180    0.1980   -2.5010 C.ar    1  UNL1       -0.0611
     18  C11       -4.1320    0.0700   -1.6270 C.ar    1  UNL1       -0.0516
     19  C12       -4.2540    0.2370   -0.2770 C.ar    1  UNL1        0.0195
     20  C13        4.9450   -0.2230    0.2120 C.ar    1  UNL1        0.0369
     21  C14        5.8550   -0.2930    1.2410 C.ar    1  UNL1       -0.0469
     22  C15        7.1850   -0.5510    0.9870 C.ar    1  UNL1       -0.0257
     23  C16        7.6630   -0.7490   -0.2910 C.ar    1  UNL1        0.1234
     24  F1         8.9780   -1.0050   -0.5460 F       1  UNL1       -0.2055
     25  C17        6.7220   -0.6720   -1.2970 C.ar    1  UNL1       -0.0257
     26  C18        5.3860   -0.4160   -1.0730 C.ar    1  UNL1       -0.0469
     27 H           2.7536    0.0253   -1.4001 H       1  UNL1        0.1491
     28 H           0.5714    0.4741   -0.9851 H       1  UNL1        0.0477
     29 H           1.1499    1.3390    0.4583 H       1  UNL1        0.0477
     30 H           1.1203   -0.6769    1.7039 H       1  UNL1        0.0477
     31 H           0.5528   -1.5494    0.2763 H       1  UNL1        0.0477
     32 H          -1.0612   -0.1667    2.0896 H       1  UNL1        0.1491
     33 H          -4.7649    0.7200    3.3381 H       1  UNL1        0.1921
     34 H          -7.5016    0.8948   -0.2717 H       1  UNL1        0.0625
     35 H          -7.2858    0.6011   -2.6475 H       1  UNL1        0.0618
     36 H          -5.0771    0.0630   -3.5144 H       1  UNL1        0.0618
     37 H          -3.2046   -0.1591   -2.0174 H       1  UNL1        0.0624
     38 H           5.5388   -0.1509    2.2130 H       1  UNL1        0.0626
     39 H           7.8446   -0.5975    1.7794 H       1  UNL1        0.0646
     40 H           7.0352   -0.8137   -2.2700 H       1  UNL1        0.0646
     41 H           4.7243   -0.3700   -1.8636 H       1  UNL1        0.0626
@<TRIPOS>BOND
     1     1     2    2
     2     2     3   am
     3     2    20    1
     4     3     4    1
     5     4     5    1
     6     5     6    1
     7     6     7   am
     8     7     8    2
     9     7     9    1
    10     9    10   ar
    11     9    19   ar
    12    10    11   ar
    13    11    12   ar
    14    12    13    2
    15    12    14   ar
    16    14    15   ar
    17    14    19   ar
    18    15    16   ar
    19    16    17   ar
    20    17    18   ar
    21    18    19   ar
    22    20    21   ar
    23    20    26   ar
    24    21    22   ar
    25    22    23   ar
    26    23    24    1
    27    23    25   ar
    28    25    26   ar
    29     3    27    1
    30     4    28    1
    31     4    29    1
    32     5    30    1
    33     5    31    1
    34     6    32    1
    35    11    33    1
    36    15    34    1
    37    16    35    1
    38    17    36    1
    39    18    37    1
    40    21    38    1
    41    22    39    1
    42    25    40    1
    43    26    41    1
@<TRIPOS>MOLECULE
../data/bude_mols_rdkit_confs2/molecule_34.pdb
 41 43 0 0 0
SMALL
GASTEIGER

@<TRIPOS>ATOM
      1  O1         2.9950    0.4990   -1.8120 O.2     1  UNL1       -0.2702
      2  C1         3.4700    0.3050   -0.6400 C.2     1  UNL1        0.2441
      3  N1         2.6030   -0.2450    0.3310 N.am    1  UNL1       -0.3099
      4  C2         1.2190   -0.5620   -0.0500 C.3     1  UNL1        0.0275
      5  C3         0.5320   -1.1240    1.1570 C.3     1  UNL1        0.0275
      6  N2        -0.8290   -1.4850    0.9500 N.am    1  UNL1       -0.3085
      7  C4        -1.8340   -0.5110    0.5360 C.2     1  UNL1        0.2648
      8  O2        -1.3600    0.6300    0.3950 O.2     1  UNL1       -0.2684
      9  C5        -3.1990   -0.9460    0.3440 C.ar    1  UNL1        0.1533
     10  N3        -3.5450   -2.2530    0.5460 N.ar    1  UNL1       -0.1656
     11  N4        -4.7560   -2.7120    0.3910 N.ar    1  UNL1       -0.2420
     12  C6        -5.8010   -1.9460    0.0120 C.ar    1  UNL1        0.2725
     13  O3        -6.9650   -2.3980   -0.1350 O.2     1  UNL1       -0.2658
     14  C7        -5.5130   -0.6160   -0.2070 C.ar    1  UNL1        0.0501
     15  C8        -6.5490    0.2030   -0.5950 C.ar    1  UNL1       -0.0487
     16  C9        -6.3080    1.5380   -0.8250 C.ar    1  UNL1       -0.0610
     17  C10       -5.0340    2.0220   -0.6620 C.ar    1  UNL1       -0.0611
     18  C11       -3.9840    1.2180   -0.2740 C.ar    1  UNL1       -0.0516
     19  C12       -4.2060   -0.1180   -0.0400 C.ar    1  UNL1        0.0195
     20  C13        4.8610    0.6550   -0.3650 C.ar    1  UNL1        0.0369
     21  C14        5.4540    0.4830    0.8600 C.ar    1  UNL1       -0.0469
     22  C15        6.7810    0.8230    1.0980 C.ar    1  UNL1       -0.0257
     23  C16        7.5370    1.3540    0.0760 C.ar    1  UNL1        0.1234
     24  F1         8.8410    1.7060    0.2510 F       1  UNL1       -0.2055
     25  C17        6.9600    1.5330   -1.1540 C.ar    1  UNL1       -0.0257
     26  C18        5.6440    1.1890   -1.3710 C.ar    1  UNL1       -0.0469
     27 H           2.9206   -0.4131    1.2476 H       1  UNL1        0.1491
     28 H           1.2146   -1.2830   -0.8406 H       1  UNL1        0.0477
     29 H           0.7141    0.3166   -0.3936 H       1  UNL1        0.0477
     30 H           0.5678   -0.3890    1.9338 H       1  UNL1        0.0477
     31 H           1.0500   -2.0259    1.4081 H       1  UNL1        0.0477
     32 H          -1.1010   -2.4207    1.0904 H       1  UNL1        0.1491
     33 H          -4.9166   -3.6686    0.5595 H       1  UNL1        0.1921
     34 H          -7.4995   -0.1814   -0.7125 H       1  UNL1        0.0625
     35 H          -7.0736    2.1659   -1.1157 H       1  UNL1        0.0618
     36 H          -4.8560    3.0235   -0.8362 H       1  UNL1        0.0618
     37 H          -3.0387    1.6160   -0.1601 H       1  UNL1        0.0624
     38 H           4.8954    0.0872    1.6322 H       1  UNL1        0.0626
     39 H           7.1959    0.6789    2.0319 H       1  UNL1        0.0646
     40 H           7.5177    1.9300   -1.9263 H       1  UNL1        0.0646
     41 H           5.2331    1.3334   -2.3066 H       1  UNL1        0.0626
@<TRIPOS>BOND
     1     1     2    2
     2     2     3   am
     3     2    20    1
     4     3     4    1
     5     4     5    1
     6     5     6    1
     7     6     7   am
     8     7     8    2
     9     7     9    1
    10     9    10   ar
    11     9    19   ar
    12    10    11   ar
    13    11    12   ar
    14    12    13    2
    15    12    14   ar
    16    14    15   ar
    17    14    19   ar
    18    15    16   ar
    19    16    17   ar
    20    17    18   ar
    21    18    19   ar
    22    20    21   ar
    23    20    26   ar
    24    21    22   ar
    25    22    23   ar
    26    23    24    1
    27    23    25   ar
    28    25    26   ar
    29     3    27    1
    30     4    28    1
    31     4    29    1
    32     5    30    1
    33     5    31    1
    34     6    32    1
    35    11    33    1
    36    15    34    1
    37    16    35    1
    38    17    36    1
    39    18    37    1
    40    21    38    1
    41    22    39    1
    42    25    40    1
    43    26    41    1
@<TRIPOS>MOLECULE
../data/bude_mols_rdkit_confs2/molecule_34.pdb
 41 43 0 0 0
SMALL
GASTEIGER

@<TRIPOS>ATOM
      1  O1         2.6800   -0.8950   -0.4710 O.2     1  UNL1       -0.2702
      2  C1         3.2810    0.1300   -0.0620 C.2     1  UNL1        0.2441
      3  N1         2.5110    1.2010    0.4420 N.am    1  UNL1       -0.3099
      4  C2         1.0450    1.1850    0.5190 C.3     1  UNL1        0.0275
      5  C3         0.5660    0.0620    1.4050 C.3     1  UNL1        0.0275
      6  N2        -0.8620    0.0120    1.5160 N.am    1  UNL1       -0.3085
      7  C4        -1.7320   -0.1970    0.3650 C.2     1  UNL1        0.2648
      8  O2        -1.1410   -0.3300   -0.7110 O.2     1  UNL1       -0.2684
      9  C5        -3.1560   -0.2220    0.6230 C.ar    1  UNL1        0.1533
     10  N3        -3.6110   -0.0570    1.8990 N.ar    1  UNL1       -0.1656
     11  N4        -4.8710   -0.0620    2.2470 N.ar    1  UNL1       -0.2420
     12  C6        -5.8240   -0.2360    1.3280 C.ar    1  UNL1        0.2725
     13  O3        -7.0540   -0.2470    1.6200 O.2     1  UNL1       -0.2658
     14  C7        -5.4820   -0.4120    0.0070 C.ar    1  UNL1        0.0501
     15  C8        -6.4700   -0.5940   -0.9580 C.ar    1  UNL1       -0.0487
     16  C9        -6.0830   -0.7660   -2.2650 C.ar    1  UNL1       -0.0610
     17  C10       -4.7460   -0.7560   -2.5970 C.ar    1  UNL1       -0.0611
     18  C11       -3.7430   -0.5750   -1.6470 C.ar    1  UNL1       -0.0516
     19  C12       -4.1290   -0.4020   -0.3320 C.ar    1  UNL1        0.0195
     20  C13        4.7480    0.1510   -0.1340 C.ar    1  UNL1        0.0369
     21  C14        5.5010    1.2240    0.2870 C.ar    1  UNL1       -0.0469
     22  C15        6.8970    1.1820    0.1920 C.ar    1  UNL1       -0.0257
     23  C16        7.5670    0.0910   -0.3170 C.ar    1  UNL1        0.1234
     24  F1         8.9320    0.0840   -0.3960 F       1  UNL1       -0.2055
     25  C17        6.8140   -0.9830   -0.7390 C.ar    1  UNL1       -0.0257
     26  C18        5.4390   -0.9390   -0.6430 C.ar    1  UNL1       -0.0469
     27 H           2.9840    2.0038    0.7597 H       1  UNL1        0.1491
     28 H           0.6438    1.0516   -0.4639 H       1  UNL1        0.0477
     29 H           0.7138    2.1138    0.9343 H       1  UNL1        0.0477
     30 H           0.9802    0.1972    2.3823 H       1  UNL1        0.0477
     31 H           0.8868   -0.8573    0.9613 H       1  UNL1        0.0477
     32 H          -1.2715    0.1232    2.4044 H       1  UNL1        0.1491
     33 H          -5.1186    0.0632    3.1916 H       1  UNL1        0.1921
     34 H          -7.4686   -0.5995   -0.6974 H       1  UNL1        0.0625
     35 H          -6.7951   -0.9029   -2.9993 H       1  UNL1        0.0618
     36 H          -4.4777   -0.8873   -3.5848 H       1  UNL1        0.0618
     37 H          -2.7468   -0.5703   -1.9163 H       1  UNL1        0.0624
     38 H           5.0357    2.0603    0.6731 H       1  UNL1        0.0626
     39 H           7.4431    1.9962    0.5143 H       1  UNL1        0.0646
     40 H           7.2784   -1.8192   -1.1264 H       1  UNL1        0.0646
     41 H           4.8979   -1.7565   -0.9654 H       1  UNL1        0.0626
@<TRIPOS>BOND
     1     1     2    2
     2     2     3   am
     3     2    20    1
     4     3     4    1
     5     4     5    1
     6     5     6    1
     7     6     7   am
     8     7     8    2
     9     7     9    1
    10     9    10   ar
    11     9    19   ar
    12    10    11   ar
    13    11    12   ar
    14    12    13    2
    15    12    14   ar
    16    14    15   ar
    17    14    19   ar
    18    15    16   ar
    19    16    17   ar
    20    17    18   ar
    21    18    19   ar
    22    20    21   ar
    23    20    26   ar
    24    21    22   ar
    25    22    23   ar
    26    23    24    1
    27    23    25   ar
    28    25    26   ar
    29     3    27    1
    30     4    28    1
    31     4    29    1
    32     5    30    1
    33     5    31    1
    34     6    32    1
    35    11    33    1
    36    15    34    1
    37    16    35    1
    38    17    36    1
    39    18    37    1
    40    21    38    1
    41    22    39    1
    42    25    40    1
    43    26    41    1
@<TRIPOS>MOLECULE
../data/bude_mols_rdkit_confs2/molecule_34.pdb
 41 43 0 0 0
SMALL
GASTEIGER

@<TRIPOS>ATOM
      1  O1         2.8760   -0.2760   -1.6200 O.2     1  UNL1       -0.2702
      2  C1         3.4330   -0.3880   -0.4910 C.2     1  UNL1        0.2441
      3  N1         2.5820   -0.7410    0.5840 N.am    1  UNL1       -0.3099
      4  C2         1.1860   -0.9590    0.4360 C.3     1  UNL1        0.0275
      5  C3         0.4390    0.2350   -0.0680 C.3     1  UNL1        0.0275
      6  N2        -0.9750    0.0370   -0.2280 N.am    1  UNL1       -0.3085
      7  C4        -1.8600   -0.2990    0.8130 C.2     1  UNL1        0.2648
      8  O2        -1.3230   -0.4460    1.9500 O.2     1  UNL1       -0.2684
      9  C5        -3.2860   -0.5030    0.7480 C.ar    1  UNL1        0.1533
     10  N3        -3.7460   -1.5750    1.4770 N.ar    1  UNL1       -0.1656
     11  N4        -4.9950   -1.9200    1.5530 N.ar    1  UNL1       -0.2420
     12  C6        -5.9050   -1.1970    0.8840 C.ar    1  UNL1        0.2725
     13  O3        -7.1100   -1.5300    0.9560 O.2     1  UNL1       -0.2658
     14  C7        -5.5340   -0.0950    0.1230 C.ar    1  UNL1        0.0501
     15  C8        -6.4890    0.6470   -0.5320 C.ar    1  UNL1       -0.0487
     16  C9        -6.0800    1.7520   -1.2530 C.ar    1  UNL1       -0.0610
     17  C10       -4.7610    2.0760   -1.2980 C.ar    1  UNL1       -0.0611
     18  C11       -3.7600    1.3500   -0.6480 C.ar    1  UNL1       -0.0516
     19  C12       -4.1850    0.2520    0.0620 C.ar    1  UNL1        0.0195
     20  C13        4.8820   -0.1590   -0.3430 C.ar    1  UNL1        0.0369
     21  C14        5.5210   -0.2700    0.8570 C.ar    1  UNL1       -0.0469
     22  C15        6.8710   -0.0460    0.9440 C.ar    1  UNL1       -0.0257
     23  C16        7.6380    0.2960   -0.1580 C.ar    1  UNL1        0.1234
     24  F1         8.9890    0.5160   -0.0480 F       1  UNL1       -0.2055
     25  C17        6.9790    0.4050   -1.3620 C.ar    1  UNL1       -0.0257
     26  C18        5.6270    0.1820   -1.4580 C.ar    1  UNL1       -0.0469
     27 H           2.9779   -0.8405    1.4799 H       1  UNL1        0.1491
     28 H           0.7839   -1.2307    1.3896 H       1  UNL1        0.0477
     29 H           1.0668   -1.7323   -0.2939 H       1  UNL1        0.0477
     30 H           0.8470    0.5059   -1.0193 H       1  UNL1        0.0477
     31 H           0.5546    0.9979    0.6733 H       1  UNL1        0.0477
     32 H          -1.3519    0.1441   -1.1312 H       1  UNL1        0.1491
     33 H          -5.2690   -2.6974    2.0914 H       1  UNL1        0.1921
     34 H          -7.4861    0.3848   -0.4860 H       1  UNL1        0.0625
     35 H          -6.7729    2.3288   -1.7552 H       1  UNL1        0.0618
     36 H          -4.4827    2.9064   -1.8439 H       1  UNL1        0.0618
     37 H          -2.7653    1.6205   -0.6976 H       1  UNL1        0.0624
     38 H           4.9864   -0.5235    1.7026 H       1  UNL1        0.0626
     39 H           7.3321   -0.1353    1.8629 H       1  UNL1        0.0646
     40 H           7.5112    0.6592   -2.2088 H       1  UNL1        0.0646
     41 H           5.1605    0.2700   -2.3743 H       1  UNL1        0.0626
@<TRIPOS>BOND
     1     1     2    2
     2     2     3   am
     3     2    20    1
     4     3     4    1
     5     4     5    1
     6     5     6    1
     7     6     7   am
     8     7     8    2
     9     7     9    1
    10     9    10   ar
    11     9    19   ar
    12    10    11   ar
    13    11    12   ar
    14    12    13    2
    15    12    14   ar
    16    14    15   ar
    17    14    19   ar
    18    15    16   ar
    19    16    17   ar
    20    17    18   ar
    21    18    19   ar
    22    20    21   ar
    23    20    26   ar
    24    21    22   ar
    25    22    23   ar
    26    23    24    1
    27    23    25   ar
    28    25    26   ar
    29     3    27    1
    30     4    28    1
    31     4    29    1
    32     5    30    1
    33     5    31    1
    34     6    32    1
    35    11    33    1
    36    15    34    1
    37    16    35    1
    38    17    36    1
    39    18    37    1
    40    21    38    1
    41    22    39    1
    42    25    40    1
    43    26    41    1
@<TRIPOS>MOLECULE
../data/bude_mols_rdkit_confs2/molecule_34.pdb
 41 43 0 0 0
SMALL
GASTEIGER

@<TRIPOS>ATOM
      1  O1         2.9330   -1.3380   -1.3820 O.2     1  UNL1       -0.2702
      2  C1         3.4030   -0.6410   -0.4420 C.2     1  UNL1        0.2441
      3  N1         2.4600    0.0450    0.3610 N.am    1  UNL1       -0.3099
      4  C2         1.0260   -0.0450    0.1200 C.3     1  UNL1        0.0275
      5  C3         0.3110    0.7850    1.1290 C.3     1  UNL1        0.0275
      6  N2        -1.1370    0.7670    0.9840 N.am    1  UNL1       -0.3085
      7  C4        -1.8010    1.2010   -0.1650 C.2     1  UNL1        0.2648
      8  O2        -1.0410    1.6520   -1.0970 O.2     1  UNL1       -0.2684
      9  C5        -3.2190    1.2240   -0.4490 C.ar    1  UNL1        0.1533
     10  N3        -3.7660    2.3220   -1.0720 N.ar    1  UNL1       -0.1656
     11  N4        -5.0310    2.4310   -1.3840 N.ar    1  UNL1       -0.2420
     12  C6        -5.9180    1.4620   -1.1170 C.ar    1  UNL1        0.2725
     13  O3        -7.1500    1.5790   -1.4240 O.2     1  UNL1       -0.2658
     14  C7        -5.4630    0.3260   -0.4990 C.ar    1  UNL1        0.0501
     15  C8        -6.3580   -0.6850   -0.2470 C.ar    1  UNL1       -0.0487
     16  C9        -5.9200   -1.8510    0.3450 C.ar    1  UNL1       -0.0610
     17  C10       -4.5820   -1.9620    0.6670 C.ar    1  UNL1       -0.0611
     18  C11       -3.6590   -0.9480    0.4210 C.ar    1  UNL1       -0.0516
     19  C12       -4.1110    0.2120   -0.1670 C.ar    1  UNL1        0.0195
     20  C13        4.8390   -0.5490   -0.2000 C.ar    1  UNL1        0.0369
     21  C14        5.7320   -1.2480   -1.0250 C.ar    1  UNL1       -0.0469
     22  C15        7.0860   -1.1670   -0.8040 C.ar    1  UNL1       -0.0257
     23  C16        7.6430   -0.4240    0.2030 C.ar    1  UNL1        0.1234
     24  F1         8.9870   -0.3990    0.3500 F       1  UNL1       -0.2055
     25  C17        6.7770    0.2660    1.0170 C.ar    1  UNL1       -0.0257
     26  C18        5.3940    0.1980    0.8090 C.ar    1  UNL1       -0.0469
     27 H           2.7838    0.6008    1.1063 H       1  UNL1        0.1491
     28 H           0.7112   -1.0640    0.2058 H       1  UNL1        0.0477
     29 H           0.8021    0.3103   -0.8641 H       1  UNL1        0.0477
     30 H           0.6472    1.7963    1.0334 H       1  UNL1        0.0477
     31 H           0.5335    0.3688    2.0893 H       1  UNL1        0.0477
     32 H          -1.6768    0.4311    1.7357 H       1  UNL1        0.1491
     33 H          -5.3424    3.2518   -1.8297 H       1  UNL1        0.1921
     34 H          -7.3524   -0.5727   -0.4992 H       1  UNL1        0.0625
     35 H          -6.5767   -2.6222    0.5426 H       1  UNL1        0.0618
     36 H          -4.2513   -2.8339    1.1091 H       1  UNL1        0.0618
     37 H          -2.6647   -1.0630    0.6723 H       1  UNL1        0.0624
     38 H           5.3712   -1.8252   -1.8007 H       1  UNL1        0.0626
     39 H           7.7160   -1.6934   -1.4293 H       1  UNL1        0.0646
     40 H           7.1498    0.8401    1.7894 H       1  UNL1        0.0646
     41 H           4.7697    0.7284    1.4367 H       1  UNL1        0.0626
@<TRIPOS>BOND
     1     1     2    2
     2     2     3   am
     3     2    20    1
     4     3     4    1
     5     4     5    1
     6     5     6    1
     7     6     7   am
     8     7     8    2
     9     7     9    1
    10     9    10   ar
    11     9    19   ar
    12    10    11   ar
    13    11    12   ar
    14    12    13    2
    15    12    14   ar
    16    14    15   ar
    17    14    19   ar
    18    15    16   ar
    19    16    17   ar
    20    17    18   ar
    21    18    19   ar
    22    20    21   ar
    23    20    26   ar
    24    21    22   ar
    25    22    23   ar
    26    23    24    1
    27    23    25   ar
    28    25    26   ar
    29     3    27    1
    30     4    28    1
    31     4    29    1
    32     5    30    1
    33     5    31    1
    34     6    32    1
    35    11    33    1
    36    15    34    1
    37    16    35    1
    38    17    36    1
    39    18    37    1
    40    21    38    1
    41    22    39    1
    42    25    40    1
    43    26    41    1
