@<TRIPOS>MOLECULE
../data/bude_mols_rdkit_confs2/molecule_89.pdb
 43 45 0 0 0
SMALL
GASTEIGER

@<TRIPOS>ATOM
      1  O1        -1.6610    2.2140   -0.9210 O.2     1  UNL1       -0.2687
      2  C1        -0.9930    1.5760   -0.0580 C.2     1  UNL1        0.2602
      3  N1        -1.6620    0.7210    0.8400 N.am    1  UNL1       -0.2301
      4  N2        -3.0660    0.5760    0.8020 N.am    1  UNL1       -0.2300
      5  C2        -3.7560   -0.1710   -0.1750 C.2     1  UNL1        0.2629
      6  O2        -3.0330   -0.7370   -1.0680 O.2     1  UNL1       -0.2686
      7  C3        -5.1990   -0.3170   -0.2040 C.ar    1  UNL1        0.0733
      8  C4        -5.7710   -1.0790   -1.2600 C.ar    1  UNL1       -0.0468
      9  C5        -7.1270   -1.2580   -1.3440 C.ar    1  UNL1       -0.0609
     10  C6        -8.0210   -0.7380   -0.4450 C.ar    1  UNL1       -0.0590
     11  C7        -7.4750    0.0050    0.5870 C.ar    1  UNL1       -0.0257
     12  C8        -6.0880    0.1980    0.6850 C.ar    1  UNL1        0.1355
     13  F1        -5.6360    0.9510    1.7370 F       1  UNL1       -0.2047
     14  C9         0.4700    1.7330    0.0050 C.ar    1  UNL1        0.0400
     15  C10        1.0050    2.8880   -0.5880 C.ar    1  UNL1       -0.0495
     16  C11        2.3650    3.1020   -0.5120 C.ar    1  UNL1       -0.0592
     17  C12        3.1470    2.1590    0.1510 C.ar    1  UNL1       -0.0364
     18  C13        2.6330    1.0310    0.7310 C.ar    1  UNL1        0.0943
     19  S1         3.6690   -0.0650    1.5950 S.O2    1  UNL1        0.0252
     20  O3         2.8700   -0.9850    2.4840 O.2     1  UNL1       -0.1643
     21  O4         4.5230    0.7670    2.5380 O.2     1  UNL1       -0.1643
     22  C14        4.7120   -0.9350    0.5290 C.ar    1  UNL1        0.0963
     23  C15        5.9070   -0.3180    0.1640 C.ar    1  UNL1       -0.0363
     24  C16        6.8390   -0.8990   -0.6640 C.ar    1  UNL1       -0.0572
     25  C17        6.6000   -2.1550   -1.1730 C.ar    1  UNL1       -0.0263
     26  C18        5.4050   -2.7860   -0.8180 C.ar    1  UNL1        0.1252
     27  F2         5.1940   -4.0400   -1.3380 F       1  UNL1       -0.2054
     28  C19        4.4890   -2.1890    0.0090 C.ar    1  UNL1       -0.0012
     29  C20        1.2560    0.8060    0.6570 C.ar    1  UNL1       -0.0243
     30 H          -1.1414    0.2158    1.5056 H       1  UNL1        0.1731
     31 H          -3.5958    1.0239    1.5005 H       1  UNL1        0.1731
     32 H          -5.1565   -1.5028   -1.9726 H       1  UNL1        0.0626
     33 H          -7.4961   -1.8165   -2.1294 H       1  UNL1        0.0618
     34 H          -9.0379   -0.8909   -0.5321 H       1  UNL1        0.0618
     35 H          -8.0973    0.4238    1.2957 H       1  UNL1        0.0646
     36 H           0.3923    3.5634   -1.0712 H       1  UNL1        0.0625
     37 H           2.7929    3.9400   -0.9358 H       1  UNL1        0.0618
     38 H           4.1649    2.3190    0.2077 H       1  UNL1        0.0637
     39 H           6.1031    0.6250    0.5347 H       1  UNL1        0.0637
     40 H           7.7093   -0.3978   -0.9013 H       1  UNL1        0.0619
     41 H           7.2811   -2.6158   -1.7965 H       1  UNL1        0.0646
     42 H           3.6175   -2.6887    0.2454 H       1  UNL1        0.0665
     43 H           0.8360   -0.0359    1.0812 H       1  UNL1        0.0644
@<TRIPOS>BOND
     1     1     2    2
     2     2     3   am
     3     2    14    1
     4     3     4    1
     5     4     5   am
     6     5     6    2
     7     5     7    1
     8     7     8   ar
     9     7    12   ar
    10     8     9   ar
    11     9    10   ar
    12    10    11   ar
    13    11    12   ar
    14    12    13    1
    15    14    15   ar
    16    14    29   ar
    17    15    16   ar
    18    16    17   ar
    19    17    18   ar
    20    18    19    1
    21    18    29   ar
    22    19    20    2
    23    19    21    2
    24    19    22    1
    25    22    23   ar
    26    22    28   ar
    27    23    24   ar
    28    24    25   ar
    29    25    26   ar
    30    26    27    1
    31    26    28   ar
    32     3    30    1
    33     4    31    1
    34     8    32    1
    35     9    33    1
    36    10    34    1
    37    11    35    1
    38    15    36    1
    39    16    37    1
    40    17    38    1
    41    23    39    1
    42    24    40    1
    43    25    41    1
    44    28    42    1
    45    29    43    1
@<TRIPOS>MOLECULE
../data/bude_mols_rdkit_confs2/molecule_89.pdb
 43 45 0 0 0
SMALL
GASTEIGER

@<TRIPOS>ATOM
      1  O1         1.0140   -0.4710    0.1390 O.2     1  UNL1       -0.2687
      2  C1         0.8750    0.7940    0.1320 C.2     1  UNL1        0.2602
      3  N1         1.9990    1.5680   -0.2010 N.am    1  UNL1       -0.2301
      4  N2         3.2460    1.0090   -0.5230 N.am    1  UNL1       -0.2300
      5  C2         3.9170    0.1870    0.3890 C.2     1  UNL1        0.2629
      6  O2         3.3220   -0.0060    1.5000 O.2     1  UNL1       -0.2686
      7  C3         5.1970   -0.4590    0.2120 C.ar    1  UNL1        0.0733
      8  C4         5.6880   -1.2540    1.2240 C.ar    1  UNL1       -0.0468
      9  C5         6.9030   -1.8710    1.0610 C.ar    1  UNL1       -0.0609
     10  C6         7.6770   -1.7420   -0.0730 C.ar    1  UNL1       -0.0590
     11  C7         7.1860   -0.9480   -1.0840 C.ar    1  UNL1       -0.0257
     12  C8         5.9410   -0.3100   -0.9280 C.ar    1  UNL1        0.1355
     13  F1         5.5640    0.4440   -1.9840 F       1  UNL1       -0.2047
     14  C9        -0.4230    1.3590    0.4660 C.ar    1  UNL1        0.0400
     15  C10       -0.7020    2.7020    0.3900 C.ar    1  UNL1       -0.0495
     16  C11       -1.9610    3.2190    0.7150 C.ar    1  UNL1       -0.0592
     17  C12       -2.9770    2.3920    1.1270 C.ar    1  UNL1       -0.0364
     18  C13       -2.7030    1.0370    1.2060 C.ar    1  UNL1        0.0943
     19  S1        -3.9450   -0.0620    1.7200 S.O2    1  UNL1        0.0252
     20  O3        -3.2890   -1.2210    2.4150 O.2     1  UNL1       -0.1643
     21  O4        -4.7990    0.6380    2.7300 O.2     1  UNL1       -0.1643
     22  C14       -4.8830   -0.6930    0.4000 C.ar    1  UNL1        0.0963
     23  C15       -4.4970   -1.8720   -0.2080 C.ar    1  UNL1       -0.0363
     24  C16       -5.2260   -2.3920   -1.2600 C.ar    1  UNL1       -0.0572
     25  C17       -6.3500   -1.7420   -1.7190 C.ar    1  UNL1       -0.0263
     26  C18       -6.7320   -0.5620   -1.1070 C.ar    1  UNL1        0.1252
     27  F2        -7.8290    0.1080   -1.5270 F       1  UNL1       -0.2054
     28  C19       -6.0180   -0.0440   -0.0710 C.ar    1  UNL1       -0.0012
     29  C20       -1.4640    0.5270    0.8870 C.ar    1  UNL1       -0.0243
     30 H           1.9081    2.5483   -0.2090 H       1  UNL1        0.1731
     31 H           3.6525    1.1974   -1.3996 H       1  UNL1        0.1731
     32 H           5.1488   -1.3841    2.0942 H       1  UNL1        0.0626
     33 H           7.2565   -2.4635    1.8285 H       1  UNL1        0.0618
     34 H           8.5869   -2.2211   -0.1599 H       1  UNL1        0.0618
     35 H           7.7282   -0.8208   -1.9528 H       1  UNL1        0.0646
     36 H           0.0404    3.3500    0.0835 H       1  UNL1        0.0625
     37 H          -2.1282    4.2349    0.6442 H       1  UNL1        0.0618
     38 H          -3.9082    2.7657    1.3683 H       1  UNL1        0.0637
     39 H          -3.6566   -2.3687    0.1267 H       1  UNL1        0.0637
     40 H          -4.9262   -3.2736   -1.7049 H       1  UNL1        0.0619
     41 H          -6.8968   -2.1280   -2.5045 H       1  UNL1        0.0646
     42 H          -6.3220    0.8387    0.3689 H       1  UNL1        0.0665
     43 H          -1.3012   -0.4894    0.9603 H       1  UNL1        0.0644
@<TRIPOS>BOND
     1     1     2    2
     2     2     3   am
     3     2    14    1
     4     3     4    1
     5     4     5   am
     6     5     6    2
     7     5     7    1
     8     7     8   ar
     9     7    12   ar
    10     8     9   ar
    11     9    10   ar
    12    10    11   ar
    13    11    12   ar
    14    12    13    1
    15    14    15   ar
    16    14    29   ar
    17    15    16   ar
    18    16    17   ar
    19    17    18   ar
    20    18    19    1
    21    18    29   ar
    22    19    20    2
    23    19    21    2
    24    19    22    1
    25    22    23   ar
    26    22    28   ar
    27    23    24   ar
    28    24    25   ar
    29    25    26   ar
    30    26    27    1
    31    26    28   ar
    32     3    30    1
    33     4    31    1
    34     8    32    1
    35     9    33    1
    36    10    34    1
    37    11    35    1
    38    15    36    1
    39    16    37    1
    40    17    38    1
    41    23    39    1
    42    24    40    1
    43    25    41    1
    44    28    42    1
    45    29    43    1
@<TRIPOS>MOLECULE
../data/bude_mols_rdkit_confs2/molecule_89.pdb
 43 45 0 0 0
SMALL
GASTEIGER

@<TRIPOS>ATOM
      1  O1         1.6670   -1.4280    1.2020 O.2     1  UNL1       -0.2687
      2  C1         0.8710   -0.8830    0.3880 C.2     1  UNL1        0.2602
      3  N1         1.3370    0.2620   -0.2820 N.am    1  UNL1       -0.2301
      4  N2         2.6320    0.7830   -0.0610 N.am    1  UNL1       -0.2300
      5  C2         3.7790    0.0090   -0.3040 C.2     1  UNL1        0.2629
      6  O2         3.5520   -1.1790   -0.7290 O.2     1  UNL1       -0.2686
      7  C3         5.1430    0.4510   -0.1090 C.ar    1  UNL1        0.0733
      8  C4         6.1650   -0.5030   -0.2190 C.ar    1  UNL1       -0.0468
      9  C5         7.4920   -0.1860   -0.0370 C.ar    1  UNL1       -0.0609
     10  C6         7.8680    1.1050    0.2650 C.ar    1  UNL1       -0.0590
     11  C7         6.8580    2.0320    0.3700 C.ar    1  UNL1       -0.0257
     12  C8         5.5110    1.7360    0.1900 C.ar    1  UNL1        0.1355
     13  F1         4.5720    2.7100    0.3020 F       1  UNL1       -0.2047
     14  C9        -0.4460   -1.4650    0.2050 C.ar    1  UNL1        0.0400
     15  C10       -0.7430   -2.6560    0.8300 C.ar    1  UNL1       -0.0495
     16  C11       -1.9960   -3.1970    0.6500 C.ar    1  UNL1       -0.0592
     17  C12       -2.9390   -2.5670   -0.1370 C.ar    1  UNL1       -0.0364
     18  C13       -2.6240   -1.3770   -0.7550 C.ar    1  UNL1        0.0943
     19  S1        -3.8610   -0.6100   -1.7510 S.O2    1  UNL1        0.0252
     20  O3        -3.1930    0.2160   -2.8190 O.2     1  UNL1       -0.1643
     21  O4        -4.7880   -1.6320   -2.3420 O.2     1  UNL1       -0.1643
     22  C14       -4.7800    0.4280   -0.6810 C.ar    1  UNL1        0.0963
     23  C15       -4.3440    1.7290   -0.5340 C.ar    1  UNL1       -0.0363
     24  C16       -5.0780    2.5520    0.3170 C.ar    1  UNL1       -0.0572
     25  C17       -6.1800    2.0670    0.9680 C.ar    1  UNL1       -0.0263
     26  C18       -6.5930    0.7490    0.7970 C.ar    1  UNL1        0.1252
     27  F2        -7.6740    0.2370    1.4220 F       1  UNL1       -0.2054
     28  C19       -5.8820   -0.0890   -0.0420 C.ar    1  UNL1       -0.0012
     29  C20       -1.3730   -0.8220   -0.5850 C.ar    1  UNL1       -0.0243
     30 H           0.7435    0.7142   -0.9242 H       1  UNL1        0.1731
     31 H           2.7322    1.7050    0.2692 H       1  UNL1        0.1731
     32 H           5.9130   -1.4780   -0.4446 H       1  UNL1        0.0626
     33 H           8.2110   -0.9208   -0.1274 H       1  UNL1        0.0618
     34 H           8.8574    1.3629    0.4052 H       1  UNL1        0.0618
     35 H           7.1148    3.0057    0.5959 H       1  UNL1        0.0646
     36 H          -0.0423   -3.1318    1.4196 H       1  UNL1        0.0625
     37 H          -2.2344   -4.0888    1.1113 H       1  UNL1        0.0618
     38 H          -3.8743   -2.9850   -0.2616 H       1  UNL1        0.0637
     39 H          -3.5103    2.0771   -1.0329 H       1  UNL1        0.0637
     40 H          -4.7893    3.5328    0.4574 H       1  UNL1        0.0619
     41 H          -6.7133    2.6887    1.5958 H       1  UNL1        0.0646
     42 H          -6.1690   -1.0701   -0.1839 H       1  UNL1        0.0665
     43 H          -1.1331    0.0692   -1.0467 H       1  UNL1        0.0644
@<TRIPOS>BOND
     1     1     2    2
     2     2     3   am
     3     2    14    1
     4     3     4    1
     5     4     5   am
     6     5     6    2
     7     5     7    1
     8     7     8   ar
     9     7    12   ar
    10     8     9   ar
    11     9    10   ar
    12    10    11   ar
    13    11    12   ar
    14    12    13    1
    15    14    15   ar
    16    14    29   ar
    17    15    16   ar
    18    16    17   ar
    19    17    18   ar
    20    18    19    1
    21    18    29   ar
    22    19    20    2
    23    19    21    2
    24    19    22    1
    25    22    23   ar
    26    22    28   ar
    27    23    24   ar
    28    24    25   ar
    29    25    26   ar
    30    26    27    1
    31    26    28   ar
    32     3    30    1
    33     4    31    1
    34     8    32    1
    35     9    33    1
    36    10    34    1
    37    11    35    1
    38    15    36    1
    39    16    37    1
    40    17    38    1
    41    23    39    1
    42    24    40    1
    43    25    41    1
    44    28    42    1
    45    29    43    1
@<TRIPOS>MOLECULE
../data/bude_mols_rdkit_confs2/molecule_89.pdb
 43 45 0 0 0
SMALL
GASTEIGER

@<TRIPOS>ATOM
      1  O1        -1.2800   -2.3980    0.2730 O.2     1  UNL1       -0.2687
      2  C1        -0.8730   -1.2900    0.7440 C.2     1  UNL1        0.2602
      3  N1        -1.8170   -0.2420    0.7740 N.am    1  UNL1       -0.2301
      4  N2        -3.1380   -0.3880    0.3210 N.am    1  UNL1       -0.2300
      5  C2        -4.0570    0.6580    0.2100 C.2     1  UNL1        0.2629
      6  O2        -3.5930    1.8060    0.5520 O.2     1  UNL1       -0.2686
      7  C3        -5.4210    0.6340   -0.2250 C.ar    1  UNL1        0.0733
      8  C4        -6.1480    1.7930   -0.3800 C.ar    1  UNL1       -0.0468
      9  C5        -7.4440    1.8420   -0.7900 C.ar    1  UNL1       -0.0609
     10  C6        -8.1020    0.6630   -1.0780 C.ar    1  UNL1       -0.0590
     11  C7        -7.4280   -0.5170   -0.9410 C.ar    1  UNL1       -0.0257
     12  C8        -6.0940   -0.5300   -0.5170 C.ar    1  UNL1        0.1355
     13  F1        -5.5390   -1.7470   -0.4180 F       1  UNL1       -0.2047
     14  C9         0.4960   -1.1620    1.2140 C.ar    1  UNL1        0.0400
     15  C10        0.6710   -0.6970    2.5060 C.ar    1  UNL1       -0.0495
     16  C11        1.9280   -0.5340    3.0720 C.ar    1  UNL1       -0.0592
     17  C12        3.0230   -0.8560    2.2930 C.ar    1  UNL1       -0.0364
     18  C13        2.8990   -1.3300    0.9800 C.ar    1  UNL1        0.0943
     19  S1         4.3350   -1.7350    0.0660 S.O2    1  UNL1        0.0252
     20  O3         5.2850   -2.4500    0.9660 O.2     1  UNL1       -0.1643
     21  O4         3.8920   -2.6510   -1.0390 O.2     1  UNL1       -0.1643
     22  C14        5.1210   -0.3090   -0.5600 C.ar    1  UNL1        0.0963
     23  C15        4.9630    0.1390   -1.8460 C.ar    1  UNL1       -0.0363
     24  C16        5.6420    1.3070   -2.2370 C.ar    1  UNL1       -0.0572
     25  C17        6.4520    2.0110   -1.3930 C.ar    1  UNL1       -0.0263
     26  C18        6.6150    1.5610   -0.0880 C.ar    1  UNL1        0.1252
     27  F2         7.4170    2.2570    0.7560 F       1  UNL1       -0.2054
     28  C19        5.9400    0.4080    0.2860 C.ar    1  UNL1       -0.0012
     29  C20        1.6200   -1.4610    0.4980 C.ar    1  UNL1       -0.0243
     30 H          -1.5365    0.6323    1.1291 H       1  UNL1        0.1731
     31 H          -3.4372   -1.2900    0.0638 H       1  UNL1        0.1731
     32 H          -5.6767    2.6869   -0.1705 H       1  UNL1        0.0626
     33 H          -7.9288    2.7481   -0.8845 H       1  UNL1        0.0618
     34 H          -9.0853    0.6731   -1.3911 H       1  UNL1        0.0618
     35 H          -7.9064   -1.4068   -1.1519 H       1  UNL1        0.0646
     36 H          -0.1623   -0.4633    3.0682 H       1  UNL1        0.0625
     37 H           2.0404   -0.1859    4.0370 H       1  UNL1        0.0618
     38 H           3.9676   -0.7432    2.6931 H       1  UNL1        0.0637
     39 H           4.3598   -0.3690   -2.5117 H       1  UNL1        0.0637
     40 H           5.5227    1.6467   -3.2041 H       1  UNL1        0.0619
     41 H           6.9351    2.8629   -1.7185 H       1  UNL1        0.0646
     42 H           6.0578    0.0675    1.2531 H       1  UNL1        0.0665
     43 H           1.5004   -1.8074   -0.4667 H       1  UNL1        0.0644
@<TRIPOS>BOND
     1     1     2    2
     2     2     3   am
     3     2    14    1
     4     3     4    1
     5     4     5   am
     6     5     6    2
     7     5     7    1
     8     7     8   ar
     9     7    12   ar
    10     8     9   ar
    11     9    10   ar
    12    10    11   ar
    13    11    12   ar
    14    12    13    1
    15    14    15   ar
    16    14    29   ar
    17    15    16   ar
    18    16    17   ar
    19    17    18   ar
    20    18    19    1
    21    18    29   ar
    22    19    20    2
    23    19    21    2
    24    19    22    1
    25    22    23   ar
    26    22    28   ar
    27    23    24   ar
    28    24    25   ar
    29    25    26   ar
    30    26    27    1
    31    26    28   ar
    32     3    30    1
    33     4    31    1
    34     8    32    1
    35     9    33    1
    36    10    34    1
    37    11    35    1
    38    15    36    1
    39    16    37    1
    40    17    38    1
    41    23    39    1
    42    24    40    1
    43    25    41    1
    44    28    42    1
    45    29    43    1
@<TRIPOS>MOLECULE
../data/bude_mols_rdkit_confs2/molecule_89.pdb
 43 45 0 0 0
SMALL
GASTEIGER

@<TRIPOS>ATOM
      1  O1        -1.8190    2.1280    0.4820 O.2     1  UNL1       -0.2687
      2  C1        -0.9460    1.2180    0.4330 C.2     1  UNL1        0.2602
      3  N1        -1.2130    0.1100   -0.4160 N.am    1  UNL1       -0.2301
      4  N2        -2.3830   -0.0080   -1.1910 N.am    1  UNL1       -0.2300
      5  C2        -3.6520    0.0520   -0.5940 C.2     1  UNL1        0.2629
      6  O2        -3.6370    0.2120    0.6820 O.2     1  UNL1       -0.2686
      7  C3        -4.9430   -0.0490   -1.2720 C.ar    1  UNL1        0.0733
      8  C4        -6.1260    0.0580   -0.5420 C.ar    1  UNL1       -0.0468
      9  C5        -7.3570   -0.0210   -1.1350 C.ar    1  UNL1       -0.0609
     10  C6        -7.4780   -0.2100   -2.4950 C.ar    1  UNL1       -0.0590
     11  C7        -6.3310   -0.3190   -3.2390 C.ar    1  UNL1       -0.0257
     12  C8        -5.0670   -0.2360   -2.6110 C.ar    1  UNL1        0.1355
     13  F1        -3.9890   -0.3580   -3.4340 F       1  UNL1       -0.2047
     14  C9         0.2910    1.3250    1.2340 C.ar    1  UNL1        0.0400
     15  C10        0.2140    1.4700    2.5930 C.ar    1  UNL1       -0.0495
     16  C11        1.3630    1.5800    3.3330 C.ar    1  UNL1       -0.0592
     17  C12        2.5970    1.5430    2.7000 C.ar    1  UNL1       -0.0364
     18  C13        2.7000    1.3980    1.3300 C.ar    1  UNL1        0.0943
     19  S1         4.2520    1.3580    0.5290 S.O2    1  UNL1        0.0252
     20  O3         4.0980    2.0300   -0.8040 O.2     1  UNL1       -0.1643
     21  O4         5.2050    2.1970    1.3350 O.2     1  UNL1       -0.1643
     22  C14        4.8400   -0.2880    0.3610 C.ar    1  UNL1        0.0963
     23  C15        5.6690   -0.8190    1.3250 C.ar    1  UNL1       -0.0363
     24  C16        6.1200   -2.1330    1.1770 C.ar    1  UNL1       -0.0572
     25  C17        5.7640   -2.9200    0.0980 C.ar    1  UNL1       -0.0263
     26  C18        4.9290   -2.3720   -0.8660 C.ar    1  UNL1        0.1252
     27  F2         4.5510   -3.1020   -1.9380 F       1  UNL1       -0.2054
     28  C19        4.4830   -1.0710   -0.7190 C.ar    1  UNL1       -0.0012
     29  C20        1.5160    1.2920    0.6320 C.ar    1  UNL1       -0.0243
     30 H          -0.5457   -0.6122   -0.4649 H       1  UNL1        0.1731
     31 H          -2.3099   -0.1343   -2.1646 H       1  UNL1        0.1731
     32 H          -6.0717    0.2014    0.4785 H       1  UNL1        0.0626
     33 H          -8.2069    0.0621   -0.5555 H       1  UNL1        0.0618
     34 H          -8.4067   -0.2679   -2.9414 H       1  UNL1        0.0618
     35 H          -6.3907   -0.4619   -4.2593 H       1  UNL1        0.0646
     36 H          -0.7063    1.4964    3.0593 H       1  UNL1        0.0625
     37 H           1.3101    1.6900    4.3578 H       1  UNL1        0.0618
     38 H           3.4567    1.6256    3.2649 H       1  UNL1        0.0637
     39 H           5.9519   -0.2558    2.1422 H       1  UNL1        0.0637
     40 H           6.7411   -2.5302    1.8991 H       1  UNL1        0.0619
     41 H           6.1095   -3.8886    0.0114 H       1  UNL1        0.0646
     42 H           3.8626   -0.6720   -1.4407 H       1  UNL1        0.0665
     43 H           1.5575    1.1826   -0.3933 H       1  UNL1        0.0644
@<TRIPOS>BOND
     1     1     2    2
     2     2     3   am
     3     2    14    1
     4     3     4    1
     5     4     5   am
     6     5     6    2
     7     5     7    1
     8     7     8   ar
     9     7    12   ar
    10     8     9   ar
    11     9    10   ar
    12    10    11   ar
    13    11    12   ar
    14    12    13    1
    15    14    15   ar
    16    14    29   ar
    17    15    16   ar
    18    16    17   ar
    19    17    18   ar
    20    18    19    1
    21    18    29   ar
    22    19    20    2
    23    19    21    2
    24    19    22    1
    25    22    23   ar
    26    22    28   ar
    27    23    24   ar
    28    24    25   ar
    29    25    26   ar
    30    26    27    1
    31    26    28   ar
    32     3    30    1
    33     4    31    1
    34     8    32    1
    35     9    33    1
    36    10    34    1
    37    11    35    1
    38    15    36    1
    39    16    37    1
    40    17    38    1
    41    23    39    1
    42    24    40    1
    43    25    41    1
    44    28    42    1
    45    29    43    1
@<TRIPOS>MOLECULE
../data/bude_mols_rdkit_confs2/molecule_89.pdb
 43 45 0 0 0
SMALL
GASTEIGER

@<TRIPOS>ATOM
      1  O1         1.3340    0.5200   -1.5260 O.2     1  UNL1       -0.2687
      2  C1         1.0360   -0.3900   -0.6820 C.2     1  UNL1        0.2602
      3  N1         2.1310   -1.0670   -0.1060 N.am    1  UNL1       -0.2301
      4  N2         3.4650   -0.7830   -0.4500 N.am    1  UNL1       -0.2300
      5  C2         4.3400   -0.2210    0.4830 C.2     1  UNL1        0.2629
      6  O2         3.8680    0.0240    1.6520 O.2     1  UNL1       -0.2686
      7  C3         5.7290    0.1030    0.2460 C.ar    1  UNL1        0.0733
      8  C4         6.4940    0.6620    1.2860 C.ar    1  UNL1       -0.0468
      9  C5         7.8170    0.9860    1.1130 C.ar    1  UNL1       -0.0609
     10  C6         8.3950    0.7530   -0.1140 C.ar    1  UNL1       -0.0590
     11  C7         7.6960    0.2120   -1.1650 C.ar    1  UNL1       -0.0257
     12  C8         6.3450   -0.1080   -0.9590 C.ar    1  UNL1        0.1355
     13  F1         5.7010   -0.6430   -2.0430 F       1  UNL1       -0.2047
     14  C9        -0.3550   -0.6960   -0.3660 C.ar    1  UNL1        0.0400
     15  C10       -0.6770   -1.7020    0.5100 C.ar    1  UNL1       -0.0495
     16  C11       -2.0120   -2.0190    0.7270 C.ar    1  UNL1       -0.0592
     17  C12       -2.9930   -1.3220    0.0620 C.ar    1  UNL1       -0.0364
     18  C13       -2.6970   -0.3020   -0.8260 C.ar    1  UNL1        0.0943
     19  S1        -4.0100    0.4600   -1.6820 S.O2    1  UNL1        0.0252
     20  O3        -3.5980    1.7810   -2.2610 O.2     1  UNL1       -0.1643
     21  O4        -4.4510   -0.4640   -2.7870 O.2     1  UNL1       -0.1643
     22  C14       -5.3310    0.7110   -0.5370 C.ar    1  UNL1        0.0963
     23  C15       -6.2980   -0.2850   -0.4070 C.ar    1  UNL1       -0.0363
     24  C16       -7.3560   -0.1780    0.4500 C.ar    1  UNL1       -0.0572
     25  C17       -7.4850    0.9720    1.2340 C.ar    1  UNL1       -0.0263
     26  C18       -6.5320    1.9580    1.1080 C.ar    1  UNL1        0.1252
     27  F2        -6.6960    3.0690    1.8900 F       1  UNL1       -0.2054
     28  C19       -5.4680    1.8340    0.2350 C.ar    1  UNL1       -0.0012
     29  C20       -1.3650   -0.0020   -1.0270 C.ar    1  UNL1       -0.0243
     30 H           1.9546   -1.7666    0.5639 H       1  UNL1        0.1731
     31 H           3.7859   -0.9826   -1.3591 H       1  UNL1        0.1731
     32 H           6.0497    0.8328    2.2017 H       1  UNL1        0.0626
     33 H           8.3655    1.3950    1.8856 H       1  UNL1        0.0618
     34 H           9.3894    0.9935   -0.2492 H       1  UNL1        0.0618
     35 H           8.1495    0.0460   -2.0770 H       1  UNL1        0.0646
     36 H           0.0670   -2.2192    1.0039 H       1  UNL1        0.0625
     37 H          -2.2660   -2.7735    1.3837 H       1  UNL1        0.0618
     38 H          -3.9813   -1.5670    0.2301 H       1  UNL1        0.0637
     39 H          -6.2107   -1.1377   -0.9817 H       1  UNL1        0.0637
     40 H          -8.0518   -0.9371    0.5179 H       1  UNL1        0.0619
     41 H          -8.2741    1.0794    1.8904 H       1  UNL1        0.0646
     42 H          -4.7720    2.5926    0.1643 H       1  UNL1        0.0665
     43 H          -1.1118    0.7540   -1.6822 H       1  UNL1        0.0644
@<TRIPOS>BOND
     1     1     2    2
     2     2     3   am
     3     2    14    1
     4     3     4    1
     5     4     5   am
     6     5     6    2
     7     5     7    1
     8     7     8   ar
     9     7    12   ar
    10     8     9   ar
    11     9    10   ar
    12    10    11   ar
    13    11    12   ar
    14    12    13    1
    15    14    15   ar
    16    14    29   ar
    17    15    16   ar
    18    16    17   ar
    19    17    18   ar
    20    18    19    1
    21    18    29   ar
    22    19    20    2
    23    19    21    2
    24    19    22    1
    25    22    23   ar
    26    22    28   ar
    27    23    24   ar
    28    24    25   ar
    29    25    26   ar
    30    26    27    1
    31    26    28   ar
    32     3    30    1
    33     4    31    1
    34     8    32    1
    35     9    33    1
    36    10    34    1
    37    11    35    1
    38    15    36    1
    39    16    37    1
    40    17    38    1
    41    23    39    1
    42    24    40    1
    43    25    41    1
    44    28    42    1
    45    29    43    1
@<TRIPOS>MOLECULE
../data/bude_mols_rdkit_confs2/molecule_89.pdb
 43 45 0 0 0
SMALL
GASTEIGER

@<TRIPOS>ATOM
      1  O1         1.1550   -0.6150    1.0120 O.2     1  UNL1       -0.2687
      2  C1         0.9220   -0.7300   -0.2140 C.2     1  UNL1        0.2602
      3  N1         2.0230   -1.0250   -1.0660 N.am    1  UNL1       -0.2301
      4  N2         3.3460   -1.1840   -0.6470 N.am    1  UNL1       -0.2300
      5  C2         4.0900   -0.0960   -0.1410 C.2     1  UNL1        0.2629
      6  O2         3.4110    1.0080   -0.1070 O.2     1  UNL1       -0.2686
      7  C3         5.4610   -0.1080    0.3090 C.ar    1  UNL1        0.0733
      8  C4         6.0720    1.1150    0.6010 C.ar    1  UNL1       -0.0468
      9  C5         7.3860    1.1970    1.0020 C.ar    1  UNL1       -0.0609
     10  C6         8.1640    0.0860    1.1380 C.ar    1  UNL1       -0.0590
     11  C7         7.5850   -1.1380    0.8590 C.ar    1  UNL1       -0.0257
     12  C8         6.2400   -1.2260    0.4470 C.ar    1  UNL1        0.1355
     13  F1         5.7150   -2.4410    0.1980 F       1  UNL1       -0.2047
     14  C9        -0.4340   -0.5660   -0.7930 C.ar    1  UNL1        0.0400
     15  C10       -0.7620   -1.2820   -1.9260 C.ar    1  UNL1       -0.0495
     16  C11       -1.9870   -1.0890   -2.5050 C.ar    1  UNL1       -0.0592
     17  C12       -2.8820   -0.1840   -1.9560 C.ar    1  UNL1       -0.0364
     18  C13       -2.5770    0.5420   -0.8230 C.ar    1  UNL1        0.0943
     19  S1        -3.7080    1.6920   -0.2210 S.O2    1  UNL1        0.0252
     20  O3        -4.2900    2.5120   -1.3690 O.2     1  UNL1       -0.1643
     21  O4        -2.9980    2.7200    0.6540 O.2     1  UNL1       -0.1643
     22  C14       -5.0150    1.0290    0.6930 C.ar    1  UNL1        0.0963
     23  C15       -6.1810    0.7330   -0.0260 C.ar    1  UNL1       -0.0363
     24  C16       -7.2750    0.2030    0.6240 C.ar    1  UNL1       -0.0572
     25  C17       -7.2660   -0.0570    1.9870 C.ar    1  UNL1       -0.0263
     26  C18       -6.1160    0.2360    2.6850 C.ar    1  UNL1        0.1252
     27  F2        -6.0800   -0.0160    4.0280 F       1  UNL1       -0.2054
     28  C19       -5.0020    0.7740    2.0440 C.ar    1  UNL1       -0.0012
     29  C20       -1.3490    0.3490   -0.2410 C.ar    1  UNL1       -0.0243
     30 H           1.8374   -1.1250   -2.0277 H       1  UNL1        0.1731
     31 H           3.7677   -2.0717   -0.7056 H       1  UNL1        0.1731
     32 H           5.5208    1.9830    0.5132 H       1  UNL1        0.0626
     33 H           7.7928    2.1235    1.2050 H       1  UNL1        0.0618
     34 H           9.1489    0.1560    1.4382 H       1  UNL1        0.0618
     35 H           8.1455   -1.9993    0.9537 H       1  UNL1        0.0646
     36 H          -0.0923   -1.9543   -2.3315 H       1  UNL1        0.0625
     37 H          -2.2450   -1.6185   -3.3524 H       1  UNL1        0.0618
     38 H          -3.8007   -0.0497   -2.4066 H       1  UNL1        0.0637
     39 H          -6.2206    0.9117   -1.0416 H       1  UNL1        0.0637
     40 H          -8.1267   -0.0068    0.0803 H       1  UNL1        0.0619
     41 H          -8.0917   -0.4557    2.4605 H       1  UNL1        0.0646
     42 H          -4.1533    0.9845    2.5922 H       1  UNL1        0.0665
     43 H          -1.0951    0.8788    0.6075 H       1  UNL1        0.0644
@<TRIPOS>BOND
     1     1     2    2
     2     2     3   am
     3     2    14    1
     4     3     4    1
     5     4     5   am
     6     5     6    2
     7     5     7    1
     8     7     8   ar
     9     7    12   ar
    10     8     9   ar
    11     9    10   ar
    12    10    11   ar
    13    11    12   ar
    14    12    13    1
    15    14    15   ar
    16    14    29   ar
    17    15    16   ar
    18    16    17   ar
    19    17    18   ar
    20    18    19    1
    21    18    29   ar
    22    19    20    2
    23    19    21    2
    24    19    22    1
    25    22    23   ar
    26    22    28   ar
    27    23    24   ar
    28    24    25   ar
    29    25    26   ar
    30    26    27    1
    31    26    28   ar
    32     3    30    1
    33     4    31    1
    34     8    32    1
    35     9    33    1
    36    10    34    1
    37    11    35    1
    38    15    36    1
    39    16    37    1
    40    17    38    1
    41    23    39    1
    42    24    40    1
    43    25    41    1
    44    28    42    1
    45    29    43    1
@<TRIPOS>MOLECULE
../data/bude_mols_rdkit_confs2/molecule_89.pdb
 43 45 0 0 0
SMALL
GASTEIGER

@<TRIPOS>ATOM
      1  O1         1.1180   -0.3070   -0.7510 O.2     1  UNL1       -0.2687
      2  C1         0.9380   -0.3470    0.4900 C.2     1  UNL1        0.2602
      3  N1         2.0580   -0.4890    1.3430 N.am    1  UNL1       -0.2301
      4  N2         3.3640   -0.5910    0.8660 N.am    1  UNL1       -0.2300
      5  C2         4.0080    0.4960    0.2600 C.2     1  UNL1        0.2629
      6  O2         3.2880    1.5650    0.1850 O.2     1  UNL1       -0.2686
      7  C3         5.3490    0.5580   -0.2740 C.ar    1  UNL1        0.0733
      8  C4         5.8470    1.7670   -0.7530 C.ar    1  UNL1       -0.0468
      9  C5         7.1360    1.8590   -1.2520 C.ar    1  UNL1       -0.0609
     10  C6         7.9680    0.7630   -1.2940 C.ar    1  UNL1       -0.0590
     11  C7         7.4770   -0.4540   -0.8170 C.ar    1  UNL1       -0.0257
     12  C8         6.1650   -0.5350   -0.3110 C.ar    1  UNL1        0.1355
     13  F1         5.8200   -1.7640    0.1050 F       1  UNL1       -0.2047
     14  C9        -0.4320   -0.2510    1.0600 C.ar    1  UNL1        0.0400
     15  C10       -0.5440    0.5700    2.1920 C.ar    1  UNL1       -0.0495
     16  C11       -1.7540    0.7070    2.8310 C.ar    1  UNL1       -0.0592
     17  C12       -2.8260    0.0160    2.3180 C.ar    1  UNL1       -0.0364
     18  C13       -2.7300   -0.7970    1.2040 C.ar    1  UNL1        0.0943
     19  S1        -4.0940   -1.6960    0.6470 S.O2    1  UNL1        0.0252
     20  O3        -3.5710   -2.9030   -0.1080 O.2     1  UNL1       -0.1643
     21  O4        -4.8380   -2.2550    1.8340 O.2     1  UNL1       -0.1643
     22  C14       -5.1160   -0.7610   -0.3810 C.ar    1  UNL1        0.0963
     23  C15       -4.8770   -0.7390   -1.7330 C.ar    1  UNL1       -0.0363
     24  C16       -5.7050   -0.0250   -2.5740 C.ar    1  UNL1       -0.0572
     25  C17       -6.7860    0.6850   -2.1170 C.ar    1  UNL1       -0.0263
     26  C18       -7.0000    0.6430   -0.7420 C.ar    1  UNL1        0.1252
     27  F2        -8.0810    1.3480   -0.2760 F       1  UNL1       -0.2054
     28  C19       -6.2020   -0.0520    0.1220 C.ar    1  UNL1       -0.0012
     29  C20       -1.5120   -0.9190    0.5810 C.ar    1  UNL1       -0.0243
     30 H           1.9085   -0.5170    2.3157 H       1  UNL1        0.1731
     31 H           3.8444   -1.4455    0.9569 H       1  UNL1        0.1731
     32 H           5.2471    2.6066   -0.7360 H       1  UNL1        0.0626
     33 H           7.4797    2.7679   -1.5994 H       1  UNL1        0.0618
     34 H           8.9271    0.8387   -1.6673 H       1  UNL1        0.0618
     35 H           8.0756   -1.2944   -0.8352 H       1  UNL1        0.0646
     36 H           0.2845    1.0729    2.5465 H       1  UNL1        0.0625
     37 H          -1.8536    1.3066    3.6650 H       1  UNL1        0.0618
     38 H          -3.7419    0.1081    2.7846 H       1  UNL1        0.0637
     39 H          -4.0746   -1.2588   -2.1215 H       1  UNL1        0.0637
     40 H          -5.5034   -0.0250   -3.5861 H       1  UNL1        0.0619
     41 H          -7.4016    1.2166   -2.7522 H       1  UNL1        0.0646
     42 H          -6.4022   -0.0510    1.1344 H       1  UNL1        0.0665
     43 H          -1.4179   -1.5197   -0.2529 H       1  UNL1        0.0644
@<TRIPOS>BOND
     1     1     2    2
     2     2     3   am
     3     2    14    1
     4     3     4    1
     5     4     5   am
     6     5     6    2
     7     5     7    1
     8     7     8   ar
     9     7    12   ar
    10     8     9   ar
    11     9    10   ar
    12    10    11   ar
    13    11    12   ar
    14    12    13    1
    15    14    15   ar
    16    14    29   ar
    17    15    16   ar
    18    16    17   ar
    19    17    18   ar
    20    18    19    1
    21    18    29   ar
    22    19    20    2
    23    19    21    2
    24    19    22    1
    25    22    23   ar
    26    22    28   ar
    27    23    24   ar
    28    24    25   ar
    29    25    26   ar
    30    26    27    1
    31    26    28   ar
    32     3    30    1
    33     4    31    1
    34     8    32    1
    35     9    33    1
    36    10    34    1
    37    11    35    1
    38    15    36    1
    39    16    37    1
    40    17    38    1
    41    23    39    1
    42    24    40    1
    43    25    41    1
    44    28    42    1
    45    29    43    1
@<TRIPOS>MOLECULE
../data/bude_mols_rdkit_confs2/molecule_89.pdb
 43 45 0 0 0
SMALL
GASTEIGER

@<TRIPOS>ATOM
      1  O1         0.6850    0.8550    0.1950 O.2     1  UNL1       -0.2687
      2  C1         0.7250   -0.4120    0.0130 C.2     1  UNL1        0.2602
      3  N1         1.9350   -0.9800   -0.4120 N.am    1  UNL1       -0.2301
      4  N2         3.1010   -0.1810   -0.6360 N.am    1  UNL1       -0.2300
      5  C2         4.2670   -0.3720    0.1070 C.2     1  UNL1        0.2629
      6  O2         4.2110   -1.3010    0.9900 O.2     1  UNL1       -0.2686
      7  C3         5.5090    0.3670   -0.0220 C.ar    1  UNL1        0.0733
      8  C4         6.5360    0.1660    0.9110 C.ar    1  UNL1       -0.0468
      9  C5         7.7380    0.8200    0.8830 C.ar    1  UNL1       -0.0609
     10  C6         7.9820    1.7400   -0.1130 C.ar    1  UNL1       -0.0590
     11  C7         7.0130    1.9710   -1.0460 C.ar    1  UNL1       -0.0257
     12  C8         5.7910    1.2890   -0.9970 C.ar    1  UNL1        0.1355
     13  F1         4.8600    1.5490   -1.9520 F       1  UNL1       -0.2047
     14  C9        -0.5030   -1.1580    0.2640 C.ar    1  UNL1        0.0400
     15  C10       -0.5370   -2.5150    0.0320 C.ar    1  UNL1       -0.0495
     16  C11       -1.7200   -3.1790    0.2860 C.ar    1  UNL1       -0.0592
     17  C12       -2.8300   -2.5160    0.7550 C.ar    1  UNL1       -0.0364
     18  C13       -2.8240   -1.1540    0.9970 C.ar    1  UNL1        0.0943
     19  S1        -4.2410   -0.3410    1.5800 S.O2    1  UNL1        0.0252
     20  O3        -5.1390   -1.2630    2.3620 O.2     1  UNL1       -0.1643
     21  O4        -3.8620    0.7780    2.5290 O.2     1  UNL1       -0.1643
     22  C14       -5.1840    0.3770    0.3000 C.ar    1  UNL1        0.0963
     23  C15       -6.1550   -0.3080   -0.3890 C.ar    1  UNL1       -0.0363
     24  C16       -6.8810    0.3170   -1.4020 C.ar    1  UNL1       -0.0572
     25  C17       -6.6460    1.6330   -1.7390 C.ar    1  UNL1       -0.0263
     26  C18       -5.6680    2.3280   -1.0470 C.ar    1  UNL1        0.1252
     27  F2        -5.4420    3.6360   -1.3890 F       1  UNL1       -0.2054
     28  C19       -4.9700    1.6970   -0.0590 C.ar    1  UNL1       -0.0012
     29  C20       -1.6370   -0.5090    0.7380 C.ar    1  UNL1       -0.0243
     30 H           1.9834   -1.9521   -0.5598 H       1  UNL1        0.1731
     31 H           3.0802    0.5181   -1.3288 H       1  UNL1        0.1731
     32 H           6.3755   -0.5183    1.6666 H       1  UNL1        0.0626
     33 H           8.4540    0.6260    1.6004 H       1  UNL1        0.0618
     34 H           8.8810    2.2452   -0.1529 H       1  UNL1        0.0618
     35 H           7.1832    2.6574   -1.7976 H       1  UNL1        0.0646
     36 H           0.2929   -3.0178   -0.3194 H       1  UNL1        0.0625
     37 H          -1.7729   -4.1962    0.1202 H       1  UNL1        0.0618
     38 H          -3.6944   -3.0513    0.9319 H       1  UNL1        0.0637
     39 H          -6.3489   -1.2942   -0.1547 H       1  UNL1        0.0637
     40 H          -7.6066   -0.2145   -1.9081 H       1  UNL1        0.0619
     41 H          -7.1866    2.0900   -2.4900 H       1  UNL1        0.0646
     42 H          -4.2457    2.2307    0.4465 H       1  UNL1        0.0665
     43 H          -1.5858    0.5083    0.9040 H       1  UNL1        0.0644
@<TRIPOS>BOND
     1     1     2    2
     2     2     3   am
     3     2    14    1
     4     3     4    1
     5     4     5   am
     6     5     6    2
     7     5     7    1
     8     7     8   ar
     9     7    12   ar
    10     8     9   ar
    11     9    10   ar
    12    10    11   ar
    13    11    12   ar
    14    12    13    1
    15    14    15   ar
    16    14    29   ar
    17    15    16   ar
    18    16    17   ar
    19    17    18   ar
    20    18    19    1
    21    18    29   ar
    22    19    20    2
    23    19    21    2
    24    19    22    1
    25    22    23   ar
    26    22    28   ar
    27    23    24   ar
    28    24    25   ar
    29    25    26   ar
    30    26    27    1
    31    26    28   ar
    32     3    30    1
    33     4    31    1
    34     8    32    1
    35     9    33    1
    36    10    34    1
    37    11    35    1
    38    15    36    1
    39    16    37    1
    40    17    38    1
    41    23    39    1
    42    24    40    1
    43    25    41    1
    44    28    42    1
    45    29    43    1
@<TRIPOS>MOLECULE
../data/bude_mols_rdkit_confs2/molecule_89.pdb
 43 45 0 0 0
SMALL
GASTEIGER

@<TRIPOS>ATOM
      1  O1         1.7340    0.0930   -1.4300 O.2     1  UNL1       -0.2687
      2  C1         1.1780    0.2080   -0.2860 C.2     1  UNL1        0.2602
      3  N1         1.9210   -0.0730    0.8590 N.am    1  UNL1       -0.2301
      4  N2         3.2610   -0.4810    0.7130 N.am    1  UNL1       -0.2300
      5  C2         4.2770    0.4920    0.5490 C.2     1  UNL1        0.2629
      6  O2         3.9000    1.7300    0.5530 O.2     1  UNL1       -0.2686
      7  C3         5.6810    0.1850    0.3830 C.ar    1  UNL1        0.0733
      8  C4         6.5960    1.2450    0.5010 C.ar    1  UNL1       -0.0468
      9  C5         7.9570    1.0670    0.3780 C.ar    1  UNL1       -0.0609
     10  C6         8.4590   -0.1900    0.1290 C.ar    1  UNL1       -0.0590
     11  C7         7.6000   -1.2570    0.0070 C.ar    1  UNL1       -0.0257
     12  C8         6.2360   -1.0410    0.1360 C.ar    1  UNL1        0.1355
     13  F1         5.4260   -2.1040   -0.0100 F       1  UNL1       -0.2047
     14  C9        -0.2030    0.6260   -0.2470 C.ar    1  UNL1        0.0400
     15  C10       -0.5820    1.9200    0.0200 C.ar    1  UNL1       -0.0495
     16  C11       -1.9420    2.2560    0.0180 C.ar    1  UNL1       -0.0592
     17  C12       -2.8930    1.2830   -0.2530 C.ar    1  UNL1       -0.0364
     18  C13       -2.5270   -0.0190   -0.5220 C.ar    1  UNL1        0.0943
     19  S1        -3.6820   -1.2680   -0.9210 S.O2    1  UNL1        0.0252
     20  O3        -3.2470   -2.5010   -0.1430 O.2     1  UNL1       -0.1643
     21  O4        -3.5670   -1.6540   -2.3780 O.2     1  UNL1       -0.1643
     22  C14       -5.2830   -0.8360   -0.4550 C.ar    1  UNL1        0.0963
     23  C15       -5.7840   -1.1650    0.7760 C.ar    1  UNL1       -0.0363
     24  C16       -7.0820   -0.8100    1.1460 C.ar    1  UNL1       -0.0572
     25  C17       -7.8970   -0.1150    0.2760 C.ar    1  UNL1       -0.0263
     26  C18       -7.3560    0.2020   -0.9670 C.ar    1  UNL1        0.1252
     27  F2        -8.1820    0.8960   -1.8180 F       1  UNL1       -0.2054
     28  C19       -6.0990   -0.1310   -1.3490 C.ar    1  UNL1       -0.0012
     29  C20       -1.1850   -0.3140   -0.5110 C.ar    1  UNL1       -0.0243
     30 H           1.5170    0.0121    1.7527 H       1  UNL1        0.1731
     31 H           3.4905   -1.4383    0.7249 H       1  UNL1        0.1731
     32 H           6.2347    2.1936    0.6870 H       1  UNL1        0.0626
     33 H           8.5962    1.8718    0.4721 H       1  UNL1        0.0618
     34 H           9.4769   -0.3314    0.0341 H       1  UNL1        0.0618
     35 H           7.9649   -2.2045   -0.1778 H       1  UNL1        0.0646
     36 H           0.1305    2.6391    0.2206 H       1  UNL1        0.0625
     37 H          -2.2357    3.2250    0.2176 H       1  UNL1        0.0618
     38 H          -3.8929    1.5383   -0.2533 H       1  UNL1        0.0637
     39 H          -5.1913   -1.6847    1.4421 H       1  UNL1        0.0637
     40 H          -7.4360   -1.0699    2.0799 H       1  UNL1        0.0619
     41 H          -8.8588    0.1561    0.5337 H       1  UNL1        0.0646
     42 H          -5.7486    0.1307   -2.2837 H       1  UNL1        0.0665
     43 H          -0.8945   -1.2842   -0.7093 H       1  UNL1        0.0644
@<TRIPOS>BOND
     1     1     2    2
     2     2     3   am
     3     2    14    1
     4     3     4    1
     5     4     5   am
     6     5     6    2
     7     5     7    1
     8     7     8   ar
     9     7    12   ar
    10     8     9   ar
    11     9    10   ar
    12    10    11   ar
    13    11    12   ar
    14    12    13    1
    15    14    15   ar
    16    14    29   ar
    17    15    16   ar
    18    16    17   ar
    19    17    18   ar
    20    18    19    1
    21    18    29   ar
    22    19    20    2
    23    19    21    2
    24    19    22    1
    25    22    23   ar
    26    22    28   ar
    27    23    24   ar
    28    24    25   ar
    29    25    26   ar
    30    26    27    1
    31    26    28   ar
    32     3    30    1
    33     4    31    1
    34     8    32    1
    35     9    33    1
    36    10    34    1
    37    11    35    1
    38    15    36    1
    39    16    37    1
    40    17    38    1
    41    23    39    1
    42    24    40    1
    43    25    41    1
    44    28    42    1
    45    29    43    1
@<TRIPOS>MOLECULE
../data/bude_mols_rdkit_confs2/molecule_89.pdb
 43 45 0 0 0
SMALL
GASTEIGER

@<TRIPOS>ATOM
      1  O1        -1.1100   -0.3480    0.2730 O.2     1  UNL1       -0.2687
      2  C1        -0.8240    0.8910    0.1410 C.2     1  UNL1        0.2602
      3  N1        -1.8500    1.7250   -0.3160 N.am    1  UNL1       -0.2301
      4  N2        -3.1230    1.1970   -0.6080 N.am    1  UNL1       -0.2300
      5  C2        -3.8930    0.4980    0.3480 C.2     1  UNL1        0.2629
      6  O2        -3.3250    0.3950    1.4920 O.2     1  UNL1       -0.2686
      7  C3        -5.1950   -0.0760    0.1430 C.ar    1  UNL1        0.0733
      8  C4        -5.7860   -0.7490    1.1980 C.ar    1  UNL1       -0.0468
      9  C5        -7.0300   -1.3330    1.0900 C.ar    1  UNL1       -0.0609
     10  C6        -7.7140   -1.2440   -0.1130 C.ar    1  UNL1       -0.0590
     11  C7        -7.1470   -0.5790   -1.1760 C.ar    1  UNL1       -0.0257
     12  C8        -5.8810    0.0020   -1.0300 C.ar    1  UNL1        0.1355
     13  F1        -5.3980    0.6350   -2.1210 F       1  UNL1       -0.2047
     14  C9         0.5170    1.3610    0.4630 C.ar    1  UNL1        0.0400
     15  C10        0.8360    2.6880    0.2990 C.ar    1  UNL1       -0.0495
     16  C11        2.1340    3.0680    0.6240 C.ar    1  UNL1       -0.0592
     17  C12        3.0720    2.1720    1.0900 C.ar    1  UNL1       -0.0364
     18  C13        2.7460    0.8410    1.2520 C.ar    1  UNL1        0.0943
     19  S1         3.9330   -0.3150    1.8440 S.O2    1  UNL1        0.0252
     20  O3         3.2610   -1.4140    2.6220 O.2     1  UNL1       -0.1643
     21  O4         4.9310    0.3860    2.7220 O.2     1  UNL1       -0.1643
     22  C14        4.8180   -1.0310    0.5190 C.ar    1  UNL1        0.0963
     23  C15        4.3340   -2.1980   -0.0450 C.ar    1  UNL1       -0.0363
     24  C16        5.0060   -2.7880   -1.0930 C.ar    1  UNL1       -0.0572
     25  C17        6.1640   -2.2410   -1.6020 C.ar    1  UNL1       -0.0263
     26  C18        6.6480   -1.0750   -1.0380 C.ar    1  UNL1        0.1252
     27  F2         7.7970   -0.4960   -1.5130 F       1  UNL1       -0.2054
     28  C19        5.9790   -0.4820    0.0100 C.ar    1  UNL1       -0.0012
     29  C20        1.4590    0.4610    0.9310 C.ar    1  UNL1       -0.0243
     30 H          -1.6812    2.6877   -0.4344 H       1  UNL1        0.1731
     31 H          -3.4901    1.3199   -1.5132 H       1  UNL1        0.1731
     32 H          -5.2791   -0.8158    2.0944 H       1  UNL1        0.0626
     33 H          -7.4464   -1.8295    1.8932 H       1  UNL1        0.0618
     34 H          -8.6463   -1.6756   -0.2109 H       1  UNL1        0.0618
     35 H          -7.6508   -0.5089   -2.0739 H       1  UNL1        0.0646
     36 H           0.1446    3.3706   -0.0491 H       1  UNL1        0.0625
     37 H           2.4048    4.0575    0.5121 H       1  UNL1        0.0618
     38 H           4.0238    2.4985    1.3191 H       1  UNL1        0.0637
     39 H           3.4690   -2.6268    0.3196 H       1  UNL1        0.0637
     40 H           4.6344   -3.6579   -1.5056 H       1  UNL1        0.0619
     41 H           6.6592   -2.6919   -2.3872 H       1  UNL1        0.0646
     42 H           6.3517    0.3877    0.4221 H       1  UNL1        0.0665
     43 H           1.1892   -0.5287    1.0437 H       1  UNL1        0.0644
@<TRIPOS>BOND
     1     1     2    2
     2     2     3   am
     3     2    14    1
     4     3     4    1
     5     4     5   am
     6     5     6    2
     7     5     7    1
     8     7     8   ar
     9     7    12   ar
    10     8     9   ar
    11     9    10   ar
    12    10    11   ar
    13    11    12   ar
    14    12    13    1
    15    14    15   ar
    16    14    29   ar
    17    15    16   ar
    18    16    17   ar
    19    17    18   ar
    20    18    19    1
    21    18    29   ar
    22    19    20    2
    23    19    21    2
    24    19    22    1
    25    22    23   ar
    26    22    28   ar
    27    23    24   ar
    28    24    25   ar
    29    25    26   ar
    30    26    27    1
    31    26    28   ar
    32     3    30    1
    33     4    31    1
    34     8    32    1
    35     9    33    1
    36    10    34    1
    37    11    35    1
    38    15    36    1
    39    16    37    1
    40    17    38    1
    41    23    39    1
    42    24    40    1
    43    25    41    1
    44    28    42    1
    45    29    43    1
@<TRIPOS>MOLECULE
../data/bude_mols_rdkit_confs2/molecule_89.pdb
 43 45 0 0 0
SMALL
GASTEIGER

@<TRIPOS>ATOM
      1  O1        -0.7440   -0.2700   -1.3690 O.2     1  UNL1       -0.2687
      2  C1        -0.6740   -1.0390   -0.3840 C.2     1  UNL1        0.2602
      3  N1        -1.8680   -1.4290    0.2470 N.am    1  UNL1       -0.2301
      4  N2        -3.1480   -0.9890   -0.1810 N.am    1  UNL1       -0.2300
      5  C2        -3.9430   -0.1480    0.6000 C.2     1  UNL1        0.2629
      6  O2        -3.4410    0.2030    1.7230 O.2     1  UNL1       -0.2686
      7  C3        -5.2630    0.3550    0.2570 C.ar    1  UNL1        0.0733
      8  C4        -5.8350    1.3600    1.0520 C.ar    1  UNL1       -0.0468
      9  C5        -7.0570    1.8740    0.7690 C.ar    1  UNL1       -0.0609
     10  C6        -7.7820    1.4340   -0.3040 C.ar    1  UNL1       -0.0590
     11  C7        -7.2410    0.4490   -1.0990 C.ar    1  UNL1       -0.0257
     12  C8        -5.9900   -0.0870   -0.8210 C.ar    1  UNL1        0.1355
     13  F1        -5.5160   -1.0760   -1.6490 F       1  UNL1       -0.2047
     14  C9         0.6100   -1.5160    0.0930 C.ar    1  UNL1        0.0400
     15  C10        0.8140   -2.2870    1.2010 C.ar    1  UNL1       -0.0495
     16  C11        2.0680   -2.7130    1.6060 C.ar    1  UNL1       -0.0592
     17  C12        3.1720   -2.3500    0.8660 C.ar    1  UNL1       -0.0364
     18  C13        3.0250   -1.5690   -0.2660 C.ar    1  UNL1        0.0943
     19  S1         4.3510   -1.0520   -1.2750 S.O2    1  UNL1        0.0252
     20  O3         3.8470   -0.8910   -2.6990 O.2     1  UNL1       -0.1643
     21  O4         5.4170   -2.1060   -1.2320 O.2     1  UNL1       -0.1643
     22  C14        4.9210    0.4840   -0.6570 C.ar    1  UNL1        0.0963
     23  C15        5.9010    0.5390    0.3130 C.ar    1  UNL1       -0.0363
     24  C16        6.3610    1.7330    0.8100 C.ar    1  UNL1       -0.0572
     25  C17        5.8520    2.9270    0.3480 C.ar    1  UNL1       -0.0263
     26  C18        4.8710    2.8790   -0.6230 C.ar    1  UNL1        0.1252
     27  F2         4.3840    4.0560   -1.0650 F       1  UNL1       -0.2054
     28  C19        4.4110    1.6710   -1.1200 C.ar    1  UNL1       -0.0012
     29  C20        1.7640   -1.1690   -0.6310 C.ar    1  UNL1       -0.0243
     30 H          -1.8141   -2.0349    1.0211 H       1  UNL1        0.1731
     31 H          -3.4859   -1.2864   -1.0566 H       1  UNL1        0.1731
     32 H          -5.3144    1.7152    1.8692 H       1  UNL1        0.0626
     33 H          -7.4480    2.6120    1.3752 H       1  UNL1        0.0618
     34 H          -8.7116    1.8306   -0.5125 H       1  UNL1        0.0618
     35 H          -7.7726    0.1037   -1.9134 H       1  UNL1        0.0646
     36 H          -0.0051   -2.5656    1.7635 H       1  UNL1        0.0625
     37 H           2.1742   -3.2951    2.4515 H       1  UNL1        0.0618
     38 H           4.1117   -2.6618    1.1573 H       1  UNL1        0.0637
     39 H           6.2990   -0.3418    0.6747 H       1  UNL1        0.0637
     40 H           7.0944    1.7363    1.5360 H       1  UNL1        0.0619
     41 H           6.1930    3.8289    0.7159 H       1  UNL1        0.0646
     42 H           3.6774    1.6633   -1.8458 H       1  UNL1        0.0665
     43 H           1.6580   -0.5864   -1.4762 H       1  UNL1        0.0644
@<TRIPOS>BOND
     1     1     2    2
     2     2     3   am
     3     2    14    1
     4     3     4    1
     5     4     5   am
     6     5     6    2
     7     5     7    1
     8     7     8   ar
     9     7    12   ar
    10     8     9   ar
    11     9    10   ar
    12    10    11   ar
    13    11    12   ar
    14    12    13    1
    15    14    15   ar
    16    14    29   ar
    17    15    16   ar
    18    16    17   ar
    19    17    18   ar
    20    18    19    1
    21    18    29   ar
    22    19    20    2
    23    19    21    2
    24    19    22    1
    25    22    23   ar
    26    22    28   ar
    27    23    24   ar
    28    24    25   ar
    29    25    26   ar
    30    26    27    1
    31    26    28   ar
    32     3    30    1
    33     4    31    1
    34     8    32    1
    35     9    33    1
    36    10    34    1
    37    11    35    1
    38    15    36    1
    39    16    37    1
    40    17    38    1
    41    23    39    1
    42    24    40    1
    43    25    41    1
    44    28    42    1
    45    29    43    1
@<TRIPOS>MOLECULE
../data/bude_mols_rdkit_confs2/molecule_89.pdb
 43 45 0 0 0
SMALL
GASTEIGER

@<TRIPOS>ATOM
      1  O1         1.5040   -1.0670   -1.6890 O.2     1  UNL1       -0.2687
      2  C1         0.8820   -0.8400   -0.6120 C.2     1  UNL1        0.2602
      3  N1         1.4210    0.0550    0.3080 N.am    1  UNL1       -0.2301
      4  N2         2.6430    0.7570    0.1340 N.am    1  UNL1       -0.2300
      5  C2         3.8330    0.1000   -0.2270 C.2     1  UNL1        0.2629
      6  O2         3.7410   -1.1660   -0.3940 O.2     1  UNL1       -0.2686
      7  C3         5.1440    0.7540   -0.4260 C.ar    1  UNL1        0.0733
      8  C4         6.1360    0.0530   -1.1150 C.ar    1  UNL1       -0.0468
      9  C5         7.3510    0.6330   -1.3370 C.ar    1  UNL1       -0.0609
     10  C6         7.6700    1.9170   -0.9060 C.ar    1  UNL1       -0.0590
     11  C7         6.6790    2.5880   -0.2290 C.ar    1  UNL1       -0.0257
     12  C8         5.4520    2.0120   -0.0010 C.ar    1  UNL1        0.1355
     13  F1         4.5570    2.7430    0.6810 F       1  UNL1       -0.2047
     14  C9        -0.3920   -1.5380   -0.3770 C.ar    1  UNL1        0.0400
     15  C10       -0.6780   -2.6980   -1.0520 C.ar    1  UNL1       -0.0495
     16  C11       -1.8670   -3.3920   -0.8880 C.ar    1  UNL1       -0.0592
     17  C12       -2.8180   -2.8960    0.0010 C.ar    1  UNL1       -0.0364
     18  C13       -2.5350   -1.7330    0.6800 C.ar    1  UNL1        0.0943
     19  S1        -3.7210   -1.0710    1.7830 S.O2    1  UNL1        0.0252
     20  O3        -4.6230   -2.1810    2.2460 O.2     1  UNL1       -0.1643
     21  O4        -3.0460   -0.3660    2.9080 O.2     1  UNL1       -0.1643
     22  C14       -4.7320    0.0750    0.8880 C.ar    1  UNL1        0.0963
     23  C15       -5.8670   -0.3810    0.2600 C.ar    1  UNL1       -0.0363
     24  C16       -6.6930    0.4530   -0.4590 C.ar    1  UNL1       -0.0572
     25  C17       -6.3460    1.7830   -0.5360 C.ar    1  UNL1       -0.0263
     26  C18       -5.2040    2.2660    0.0910 C.ar    1  UNL1        0.1252
     27  F2        -4.8350    3.5690    0.0330 F       1  UNL1       -0.2054
     28  C19       -4.4030    1.3940    0.8020 C.ar    1  UNL1       -0.0012
     29  C20       -1.3300   -1.0450    0.5030 C.ar    1  UNL1       -0.0243
     30 H           0.9184    0.2127    1.1397 H       1  UNL1        0.1731
     31 H           2.6577    1.7319    0.2700 H       1  UNL1        0.1731
     32 H           5.9503   -0.9031   -1.4561 H       1  UNL1        0.0626
     33 H           8.0670    0.0940   -1.8486 H       1  UNL1        0.0618
     34 H           8.5944    2.3401   -1.0837 H       1  UNL1        0.0618
     35 H           6.8602    3.5439    0.1151 H       1  UNL1        0.0646
     36 H           0.0233   -3.0705   -1.7112 H       1  UNL1        0.0625
     37 H          -2.0445   -4.2611   -1.4154 H       1  UNL1        0.0618
     38 H          -3.7130   -3.3888    0.1468 H       1  UNL1        0.0637
     39 H          -6.1077   -1.3821    0.3300 H       1  UNL1        0.0637
     40 H          -7.5418    0.0942   -0.9236 H       1  UNL1        0.0619
     41 H          -6.9448    2.4329   -1.0690 H       1  UNL1        0.0646
     42 H          -3.5520    1.7431    1.2699 H       1  UNL1        0.0665
     43 H          -1.1453   -0.1755    1.0273 H       1  UNL1        0.0644
@<TRIPOS>BOND
     1     1     2    2
     2     2     3   am
     3     2    14    1
     4     3     4    1
     5     4     5   am
     6     5     6    2
     7     5     7    1
     8     7     8   ar
     9     7    12   ar
    10     8     9   ar
    11     9    10   ar
    12    10    11   ar
    13    11    12   ar
    14    12    13    1
    15    14    15   ar
    16    14    29   ar
    17    15    16   ar
    18    16    17   ar
    19    17    18   ar
    20    18    19    1
    21    18    29   ar
    22    19    20    2
    23    19    21    2
    24    19    22    1
    25    22    23   ar
    26    22    28   ar
    27    23    24   ar
    28    24    25   ar
    29    25    26   ar
    30    26    27    1
    31    26    28   ar
    32     3    30    1
    33     4    31    1
    34     8    32    1
    35     9    33    1
    36    10    34    1
    37    11    35    1
    38    15    36    1
    39    16    37    1
    40    17    38    1
    41    23    39    1
    42    24    40    1
    43    25    41    1
    44    28    42    1
    45    29    43    1
@<TRIPOS>MOLECULE
../data/bude_mols_rdkit_confs2/molecule_89.pdb
 43 45 0 0 0
SMALL
GASTEIGER

@<TRIPOS>ATOM
      1  O1         1.3750   -2.1110   -1.2930 O.2     1  UNL1       -0.2687
      2  C1         0.6320   -1.1130   -1.1530 C.2     1  UNL1        0.2602
      3  N1         1.2260    0.1510   -1.1260 N.am    1  UNL1       -0.2301
      4  N2         2.6300    0.3380   -1.2520 N.am    1  UNL1       -0.2300
      5  C2         3.4710   -0.3310   -0.3350 C.2     1  UNL1        0.2629
      6  O2         2.9300   -1.0810    0.5710 O.2     1  UNL1       -0.2686
      7  C3         4.9170   -0.2340   -0.3420 C.ar    1  UNL1        0.0733
      8  C4         5.6610   -1.0880    0.4620 C.ar    1  UNL1       -0.0468
      9  C5         7.0350   -1.0950    0.5230 C.ar    1  UNL1       -0.0609
     10  C6         7.7400   -0.2020   -0.2580 C.ar    1  UNL1       -0.0590
     11  C7         7.0280    0.6570   -1.0650 C.ar    1  UNL1       -0.0257
     12  C8         5.6270    0.6490   -1.1130 C.ar    1  UNL1        0.1355
     13  F1         5.0410    1.5440   -1.9340 F       1  UNL1       -0.2047
     14  C9        -0.8140   -1.3180   -1.0240 C.ar    1  UNL1        0.0400
     15  C10       -1.3250   -2.6170   -0.8960 C.ar    1  UNL1       -0.0495
     16  C11       -2.6710   -2.8710   -0.7750 C.ar    1  UNL1       -0.0592
     17  C12       -3.5670   -1.8240   -0.7790 C.ar    1  UNL1       -0.0364
     18  C13       -3.0880   -0.5370   -0.9040 C.ar    1  UNL1        0.0943
     19  S1        -4.2210    0.7920   -0.9160 S.O2    1  UNL1        0.0252
     20  O3        -3.6470    1.8820   -1.7680 O.2     1  UNL1       -0.1643
     21  O4        -5.5110    0.2920   -1.5020 O.2     1  UNL1       -0.1643
     22  C14       -4.4690    1.3010    0.7440 C.ar    1  UNL1        0.0963
     23  C15       -3.6570    2.2470    1.2980 C.ar    1  UNL1       -0.0363
     24  C16       -3.8520    2.6500    2.6030 C.ar    1  UNL1       -0.0572
     25  C17       -4.8500    2.1280    3.3840 C.ar    1  UNL1       -0.0263
     26  C18       -5.6660    1.1730    2.8170 C.ar    1  UNL1        0.1252
     27  F2        -6.6550    0.6560    3.5890 F       1  UNL1       -0.2054
     28  C19       -5.4830    0.7620    1.5150 C.ar    1  UNL1       -0.0012
     29  C20       -1.7160   -0.2910   -1.0270 C.ar    1  UNL1       -0.0243
     30 H           0.6508    0.9423   -1.0156 H       1  UNL1        0.1731
     31 H           3.0042    0.9155   -1.9561 H       1  UNL1        0.1731
     32 H           5.1490   -1.7618    1.0526 H       1  UNL1        0.0626
     33 H           7.5299   -1.7562    1.1418 H       1  UNL1        0.0618
     34 H           8.7715   -0.1787   -0.2378 H       1  UNL1        0.0618
     35 H           7.5432    1.3294   -1.6544 H       1  UNL1        0.0646
     36 H          -0.6669   -3.4119   -0.8924 H       1  UNL1        0.0625
     37 H          -3.0088   -3.8417   -0.6816 H       1  UNL1        0.0618
     38 H          -4.5799   -2.0002   -0.6899 H       1  UNL1        0.0637
     39 H          -2.8950    2.6622    0.7395 H       1  UNL1        0.0637
     40 H          -3.2269    3.3668    3.0036 H       1  UNL1        0.0619
     41 H          -4.9852    2.4381    4.3590 H       1  UNL1        0.0646
     42 H          -6.1075    0.0462    1.1116 H       1  UNL1        0.0665
     43 H          -1.3802    0.6803   -1.1214 H       1  UNL1        0.0644
@<TRIPOS>BOND
     1     1     2    2
     2     2     3   am
     3     2    14    1
     4     3     4    1
     5     4     5   am
     6     5     6    2
     7     5     7    1
     8     7     8   ar
     9     7    12   ar
    10     8     9   ar
    11     9    10   ar
    12    10    11   ar
    13    11    12   ar
    14    12    13    1
    15    14    15   ar
    16    14    29   ar
    17    15    16   ar
    18    16    17   ar
    19    17    18   ar
    20    18    19    1
    21    18    29   ar
    22    19    20    2
    23    19    21    2
    24    19    22    1
    25    22    23   ar
    26    22    28   ar
    27    23    24   ar
    28    24    25   ar
    29    25    26   ar
    30    26    27    1
    31    26    28   ar
    32     3    30    1
    33     4    31    1
    34     8    32    1
    35     9    33    1
    36    10    34    1
    37    11    35    1
    38    15    36    1
    39    16    37    1
    40    17    38    1
    41    23    39    1
    42    24    40    1
    43    25    41    1
    44    28    42    1
    45    29    43    1
@<TRIPOS>MOLECULE
../data/bude_mols_rdkit_confs2/molecule_89.pdb
 43 45 0 0 0
SMALL
GASTEIGER

@<TRIPOS>ATOM
      1  O1        -1.6300    1.2590    1.2880 O.2     1  UNL1       -0.2687
      2  C1        -1.1110    0.1640    0.9100 C.2     1  UNL1        0.2602
      3  N1        -2.0140   -0.8470    0.4620 N.am    1  UNL1       -0.2301
      4  N2        -3.4030   -0.7210    0.4340 N.am    1  UNL1       -0.2300
      5  C2        -4.1570    0.2920   -0.1500 C.2     1  UNL1        0.2629
      6  O2        -3.4870    1.2230   -0.7310 O.2     1  UNL1       -0.2686
      7  C3        -5.5910    0.4450   -0.1910 C.ar    1  UNL1        0.0733
      8  C4        -6.1880    1.6590   -0.5400 C.ar    1  UNL1       -0.0468
      9  C5        -7.5590    1.8450   -0.5560 C.ar    1  UNL1       -0.0609
     10  C6        -8.3900    0.7740   -0.2060 C.ar    1  UNL1       -0.0590
     11  C7        -7.8310   -0.4290    0.1400 C.ar    1  UNL1       -0.0257
     12  C8        -6.4480   -0.5640    0.1390 C.ar    1  UNL1        0.1355
     13  F1        -6.0100   -1.8100    0.4820 F       1  UNL1       -0.2047
     14  C9         0.3190   -0.0790    0.9260 C.ar    1  UNL1        0.0400
     15  C10        0.8840   -0.5840    2.0650 C.ar    1  UNL1       -0.0495
     16  C11        2.2390   -0.8450    2.1040 C.ar    1  UNL1       -0.0592
     17  C12        3.0170   -0.5960    0.9950 C.ar    1  UNL1       -0.0364
     18  C13        2.4310   -0.0920   -0.1320 C.ar    1  UNL1        0.0943
     19  S1         3.4140    0.1790   -1.5460 S.O2    1  UNL1        0.0252
     20  O3         3.1490    1.5390   -2.1340 O.2     1  UNL1       -0.1643
     21  O4         3.0470   -0.8840   -2.5630 O.2     1  UNL1       -0.1643
     22  C14        5.1050    0.0840   -1.1240 C.ar    1  UNL1        0.0963
     23  C15        5.8780    1.1610   -0.8110 C.ar    1  UNL1       -0.0363
     24  C16        7.2070    0.9870   -0.4810 C.ar    1  UNL1       -0.0572
     25  C17        7.8000   -0.2560   -0.4530 C.ar    1  UNL1       -0.0263
     26  C18        7.0240   -1.3410   -0.7680 C.ar    1  UNL1        0.1252
     27  F2         7.5500   -2.6010   -0.7580 F       1  UNL1       -0.2054
     28  C19        5.7080   -1.1610   -1.0940 C.ar    1  UNL1       -0.0012
     29  C20        1.0890    0.1680   -0.1730 C.ar    1  UNL1       -0.0243
     30 H          -1.6275   -1.6968    0.1494 H       1  UNL1        0.1731
     31 H          -3.9113   -1.4354    0.8817 H       1  UNL1        0.1731
     32 H          -5.5796    2.4519   -0.7972 H       1  UNL1        0.0626
     33 H          -7.9620    2.7573   -0.8213 H       1  UNL1        0.0618
     34 H          -9.4155    0.8893   -0.2085 H       1  UNL1        0.0618
     35 H          -8.4319   -1.2271    0.3989 H       1  UNL1        0.0646
     36 H           0.2980   -0.7696    2.8940 H       1  UNL1        0.0625
     37 H           2.6680   -1.2257    2.9619 H       1  UNL1        0.0618
     38 H           4.0308   -0.7878    1.0149 H       1  UNL1        0.0637
     39 H           5.4694    2.1086   -0.8206 H       1  UNL1        0.0637
     40 H           7.7755    1.8160   -0.2474 H       1  UNL1        0.0619
     41 H           8.7952   -0.3666   -0.2032 H       1  UNL1        0.0646
     42 H           5.1398   -1.9901   -1.3279 H       1  UNL1        0.0665
     43 H           0.6607    0.5492   -1.0311 H       1  UNL1        0.0644
@<TRIPOS>BOND
     1     1     2    2
     2     2     3   am
     3     2    14    1
     4     3     4    1
     5     4     5   am
     6     5     6    2
     7     5     7    1
     8     7     8   ar
     9     7    12   ar
    10     8     9   ar
    11     9    10   ar
    12    10    11   ar
    13    11    12   ar
    14    12    13    1
    15    14    15   ar
    16    14    29   ar
    17    15    16   ar
    18    16    17   ar
    19    17    18   ar
    20    18    19    1
    21    18    29   ar
    22    19    20    2
    23    19    21    2
    24    19    22    1
    25    22    23   ar
    26    22    28   ar
    27    23    24   ar
    28    24    25   ar
    29    25    26   ar
    30    26    27    1
    31    26    28   ar
    32     3    30    1
    33     4    31    1
    34     8    32    1
    35     9    33    1
    36    10    34    1
    37    11    35    1
    38    15    36    1
    39    16    37    1
    40    17    38    1
    41    23    39    1
    42    24    40    1
    43    25    41    1
    44    28    42    1
    45    29    43    1
@<TRIPOS>MOLECULE
../data/bude_mols_rdkit_confs2/molecule_89.pdb
 43 45 0 0 0
SMALL
GASTEIGER

@<TRIPOS>ATOM
      1  O1        -0.6570    0.1340    1.8220 O.2     1  UNL1       -0.2687
      2  C1        -0.6400   -0.4080    0.6790 C.2     1  UNL1        0.2602
      3  N1        -1.8570   -0.5550   -0.0570 N.am    1  UNL1       -0.2301
      4  N2        -3.0920   -0.1110    0.4600 N.am    1  UNL1       -0.2300
      5  C2        -4.2400   -0.1920   -0.3650 C.2     1  UNL1        0.2629
      6  O2        -4.0850   -0.6780   -1.5420 O.2     1  UNL1       -0.2686
      7  C3        -5.5350    0.2400    0.0750 C.ar    1  UNL1        0.0733
      8  C4        -6.6350   -0.1740   -0.6920 C.ar    1  UNL1       -0.0468
      9  C5        -7.9100    0.1780   -0.3160 C.ar    1  UNL1       -0.0609
     10  C6        -8.1750    0.9370    0.8050 C.ar    1  UNL1       -0.0590
     11  C7        -7.0980    1.3340    1.5430 C.ar    1  UNL1       -0.0257
     12  C8        -5.7830    0.9870    1.1800 C.ar    1  UNL1        0.1355
     13  F1        -4.7540    1.4280    1.9430 F       1  UNL1       -0.2047
     14  C9         0.5920   -0.9070    0.0450 C.ar    1  UNL1        0.0400
     15  C10        0.7180   -2.2710   -0.2310 C.ar    1  UNL1       -0.0495
     16  C11        1.8690   -2.7310   -0.8400 C.ar    1  UNL1       -0.0592
     17  C12        2.8990   -1.8860   -1.1850 C.ar    1  UNL1       -0.0364
     18  C13        2.7950   -0.5310   -0.9200 C.ar    1  UNL1        0.0943
     19  S1         4.0890    0.5820   -1.3530 S.O2    1  UNL1        0.0252
     20  O3         3.4400    1.8890   -1.7040 O.2     1  UNL1       -0.1643
     21  O4         4.8490    0.1270   -2.5540 O.2     1  UNL1       -0.1643
     22  C14        5.1300    0.7290    0.0390 C.ar    1  UNL1        0.0963
     23  C15        4.9280    1.7580    0.9160 C.ar    1  UNL1       -0.0363
     24  C16        5.7370    1.8660    2.0250 C.ar    1  UNL1       -0.0572
     25  C17        6.7410    0.9590    2.2650 C.ar    1  UNL1       -0.0263
     26  C18        6.9520   -0.0830    1.3870 C.ar    1  UNL1        0.1252
     27  F2         7.9270   -0.9930    1.6060 F       1  UNL1       -0.2054
     28  C19        6.1490   -0.1990    0.2730 C.ar    1  UNL1       -0.0012
     29  C20        1.6390   -0.0950   -0.3130 C.ar    1  UNL1       -0.0243
     30 H          -1.8324   -0.9764   -0.9464 H       1  UNL1        0.1731
     31 H          -3.1545    0.2475    1.3748 H       1  UNL1        0.1731
     32 H          -6.4867   -0.7436   -1.5397 H       1  UNL1        0.0626
     33 H          -8.7019   -0.1390   -0.8969 H       1  UNL1        0.0618
     34 H          -9.1388    1.1917    1.0720 H       1  UNL1        0.0618
     35 H          -7.2517    1.9037    2.3897 H       1  UNL1        0.0646
     36 H          -0.0395   -2.9264    0.0171 H       1  UNL1        0.0625
     37 H           1.9595   -3.7389   -1.0425 H       1  UNL1        0.0618
     38 H           3.7461   -2.2611   -1.6397 H       1  UNL1        0.0637
     39 H           4.1775    2.4463    0.7487 H       1  UNL1        0.0637
     40 H           5.5865    2.6423    2.6881 H       1  UNL1        0.0619
     41 H           7.3367    1.0577    3.1019 H       1  UNL1        0.0646
     42 H           6.3006   -0.9742   -0.3912 H       1  UNL1        0.0665
     43 H           1.5536    0.9138   -0.1130 H       1  UNL1        0.0644
@<TRIPOS>BOND
     1     1     2    2
     2     2     3   am
     3     2    14    1
     4     3     4    1
     5     4     5   am
     6     5     6    2
     7     5     7    1
     8     7     8   ar
     9     7    12   ar
    10     8     9   ar
    11     9    10   ar
    12    10    11   ar
    13    11    12   ar
    14    12    13    1
    15    14    15   ar
    16    14    29   ar
    17    15    16   ar
    18    16    17   ar
    19    17    18   ar
    20    18    19    1
    21    18    29   ar
    22    19    20    2
    23    19    21    2
    24    19    22    1
    25    22    23   ar
    26    22    28   ar
    27    23    24   ar
    28    24    25   ar
    29    25    26   ar
    30    26    27    1
    31    26    28   ar
    32     3    30    1
    33     4    31    1
    34     8    32    1
    35     9    33    1
    36    10    34    1
    37    11    35    1
    38    15    36    1
    39    16    37    1
    40    17    38    1
    41    23    39    1
    42    24    40    1
    43    25    41    1
    44    28    42    1
    45    29    43    1
@<TRIPOS>MOLECULE
../data/bude_mols_rdkit_confs2/molecule_89.pdb
 43 45 0 0 0
SMALL
GASTEIGER

@<TRIPOS>ATOM
      1  O1        -1.3040    0.9550    0.9520 O.2     1  UNL1       -0.2687
      2  C1        -0.9840   -0.1030    0.2850 C.2     1  UNL1        0.2602
      3  N1        -1.9730   -0.7030   -0.5390 N.am    1  UNL1       -0.2301
      4  N2        -3.2640   -0.0670   -0.5120 N.am    1  UNL1       -0.2300
      5  C2        -4.3830   -0.8970   -0.3040 C.2     1  UNL1        0.2629
      6  O2        -4.1750   -2.1770   -0.1740 O.2     1  UNL1       -0.2686
      7  C3        -5.7390   -0.4230   -0.2190 C.ar    1  UNL1        0.0733
      8  C4        -6.7320   -1.3520    0.1130 C.ar    1  UNL1       -0.0468
      9  C5        -8.0470   -1.0360    0.2670 C.ar    1  UNL1       -0.0609
     10  C6        -8.4240    0.2710    0.0850 C.ar    1  UNL1       -0.0590
     11  C7        -7.5080    1.2490   -0.2450 C.ar    1  UNL1       -0.0257
     12  C8        -6.1860    0.8580   -0.3860 C.ar    1  UNL1        0.1355
     13  F1        -5.3080    1.8080   -0.7120 F       1  UNL1       -0.2047
     14  C9         0.3610   -0.6390    0.4030 C.ar    1  UNL1        0.0400
     15  C10        0.6360   -1.9960    0.3070 C.ar    1  UNL1       -0.0495
     16  C11        1.9050   -2.4800    0.4870 C.ar    1  UNL1       -0.0592
     17  C12        2.9610   -1.6070    0.7750 C.ar    1  UNL1       -0.0364
     18  C13        2.7260   -0.2560    0.8750 C.ar    1  UNL1        0.0943
     19  S1         4.0140    0.8900    1.2980 S.O2    1  UNL1        0.0252
     20  O3         4.3790    0.6950    2.7280 O.2     1  UNL1       -0.1643
     21  O4         3.4540    2.3040    1.1430 O.2     1  UNL1       -0.1643
     22  C14        5.3400    0.6600    0.2050 C.ar    1  UNL1        0.0963
     23  C15        5.3570    1.1920   -1.0570 C.ar    1  UNL1       -0.0363
     24  C16        6.4390    0.9990   -1.9130 C.ar    1  UNL1       -0.0572
     25  C17        7.5020    0.2660   -1.4830 C.ar    1  UNL1       -0.0263
     26  C18        7.5000   -0.2830   -0.1960 C.ar    1  UNL1        0.1252
     27  F2         8.5470   -0.9970    0.2260 F       1  UNL1       -0.2054
     28  C19        6.4090   -0.0830    0.6530 C.ar    1  UNL1       -0.0012
     29  C20        1.4470    0.1820    0.6870 C.ar    1  UNL1       -0.0243
     30 H          -1.7886   -1.4979   -1.0898 H       1  UNL1        0.1731
     31 H          -3.3607    0.9052   -0.6335 H       1  UNL1        0.1731
     32 H          -6.4502   -2.3354    0.2492 H       1  UNL1        0.0626
     33 H          -8.7410   -1.7589    0.5137 H       1  UNL1        0.0618
     34 H          -9.4169    0.5288    0.1977 H       1  UNL1        0.0618
     35 H          -7.7955    2.2307   -0.3811 H       1  UNL1        0.0646
     36 H          -0.1308   -2.6536    0.0958 H       1  UNL1        0.0625
     37 H           2.0835   -3.4935    0.4099 H       1  UNL1        0.0618
     38 H           3.9146   -1.9771    0.9121 H       1  UNL1        0.0637
     39 H           4.5503    1.7482   -1.3810 H       1  UNL1        0.0637
     40 H           6.4345    1.4066   -2.8611 H       1  UNL1        0.0619
     41 H           8.3102    0.1150   -2.1067 H       1  UNL1        0.0646
     42 H           6.4043   -0.4865    1.6028 H       1  UNL1        0.0665
     43 H           1.2731    1.1966    0.7610 H       1  UNL1        0.0644
@<TRIPOS>BOND
     1     1     2    2
     2     2     3   am
     3     2    14    1
     4     3     4    1
     5     4     5   am
     6     5     6    2
     7     5     7    1
     8     7     8   ar
     9     7    12   ar
    10     8     9   ar
    11     9    10   ar
    12    10    11   ar
    13    11    12   ar
    14    12    13    1
    15    14    15   ar
    16    14    29   ar
    17    15    16   ar
    18    16    17   ar
    19    17    18   ar
    20    18    19    1
    21    18    29   ar
    22    19    20    2
    23    19    21    2
    24    19    22    1
    25    22    23   ar
    26    22    28   ar
    27    23    24   ar
    28    24    25   ar
    29    25    26   ar
    30    26    27    1
    31    26    28   ar
    32     3    30    1
    33     4    31    1
    34     8    32    1
    35     9    33    1
    36    10    34    1
    37    11    35    1
    38    15    36    1
    39    16    37    1
    40    17    38    1
    41    23    39    1
    42    24    40    1
    43    25    41    1
    44    28    42    1
    45    29    43    1
@<TRIPOS>MOLECULE
../data/bude_mols_rdkit_confs2/molecule_89.pdb
 43 45 0 0 0
SMALL
GASTEIGER

@<TRIPOS>ATOM
      1  O1        -1.9650   -0.1790    2.0710 O.2     1  UNL1       -0.2687
      2  C1        -1.0700   -0.6250    1.3070 C.2     1  UNL1        0.2602
      3  N1        -1.4900   -0.9720   -0.0030 N.am    1  UNL1       -0.2301
      4  N2        -2.8390   -0.8260   -0.4340 N.am    1  UNL1       -0.2300
      5  C2        -3.4780    0.4370   -0.4120 C.2     1  UNL1        0.2629
      6  O2        -2.7390    1.3920    0.0200 O.2     1  UNL1       -0.2686
      7  C3        -4.8420    0.7160   -0.8230 C.ar    1  UNL1        0.0733
      8  C4        -5.2790    2.0190   -0.7250 C.ar    1  UNL1       -0.0468
      9  C5        -6.5340    2.3930   -1.0810 C.ar    1  UNL1       -0.0609
     10  C6        -7.4110    1.4450   -1.5580 C.ar    1  UNL1       -0.0590
     11  C7        -7.0230    0.1450   -1.6720 C.ar    1  UNL1       -0.0257
     12  C8        -5.7250   -0.2140   -1.2990 C.ar    1  UNL1        0.1355
     13  F1        -5.3860   -1.4960   -1.4270 F       1  UNL1       -0.2047
     14  C9         0.3040   -0.7680    1.7650 C.ar    1  UNL1        0.0400
     15  C10        0.6000   -0.4020    3.0560 C.ar    1  UNL1       -0.0495
     16  C11        1.8720   -0.5020    3.5750 C.ar    1  UNL1       -0.0592
     17  C12        2.8920   -0.9940    2.7540 C.ar    1  UNL1       -0.0364
     18  C13        2.6250   -1.3690    1.4550 C.ar    1  UNL1        0.0943
     19  S1         3.8950   -1.9820    0.4330 S.O2    1  UNL1        0.0252
     20  O3         3.2390   -2.8500   -0.6190 O.2     1  UNL1       -0.1643
     21  O4         4.9270   -2.7480    1.2010 O.2     1  UNL1       -0.1643
     22  C14        4.6380   -0.6320   -0.4120 C.ar    1  UNL1        0.0963
     23  C15        4.1560   -0.2170   -1.6490 C.ar    1  UNL1       -0.0363
     24  C16        4.7580    0.8460   -2.2910 C.ar    1  UNL1       -0.0572
     25  C17        5.8300    1.5320   -1.7690 C.ar    1  UNL1       -0.0263
     26  C18        6.3150    1.1160   -0.5270 C.ar    1  UNL1        0.1252
     27  F2         7.3740    1.7910   -0.0070 F       1  UNL1       -0.2054
     28  C19        5.7140    0.0570    0.1120 C.ar    1  UNL1       -0.0012
     29  C20        1.3260   -1.2450    0.9910 C.ar    1  UNL1       -0.0243
     30 H          -0.8249   -1.3264   -0.6365 H       1  UNL1        0.1731
     31 H          -3.3347   -1.6149   -0.7520 H       1  UNL1        0.1731
     32 H          -4.6286    2.7363   -0.3680 H       1  UNL1        0.0626
     33 H          -6.8281    3.3785   -0.9950 H       1  UNL1        0.0618
     34 H          -8.3673    1.7212   -1.8305 H       1  UNL1        0.0618
     35 H          -7.6794   -0.5666   -2.0295 H       1  UNL1        0.0646
     36 H          -0.1565   -0.0398    3.6573 H       1  UNL1        0.0625
     37 H           2.0681   -0.2201    4.5482 H       1  UNL1        0.0618
     38 H           3.8519   -1.0768    3.1238 H       1  UNL1        0.0637
     39 H           3.3543   -0.7003   -2.0834 H       1  UNL1        0.0637
     40 H           4.3858    1.1406   -3.2073 H       1  UNL1        0.0619
     41 H           6.2589    2.3226   -2.2750 H       1  UNL1        0.0646
     42 H           6.0855   -0.2375    1.0287 H       1  UNL1        0.0665
     43 H           1.1202   -1.5246    0.0192 H       1  UNL1        0.0644
@<TRIPOS>BOND
     1     1     2    2
     2     2     3   am
     3     2    14    1
     4     3     4    1
     5     4     5   am
     6     5     6    2
     7     5     7    1
     8     7     8   ar
     9     7    12   ar
    10     8     9   ar
    11     9    10   ar
    12    10    11   ar
    13    11    12   ar
    14    12    13    1
    15    14    15   ar
    16    14    29   ar
    17    15    16   ar
    18    16    17   ar
    19    17    18   ar
    20    18    19    1
    21    18    29   ar
    22    19    20    2
    23    19    21    2
    24    19    22    1
    25    22    23   ar
    26    22    28   ar
    27    23    24   ar
    28    24    25   ar
    29    25    26   ar
    30    26    27    1
    31    26    28   ar
    32     3    30    1
    33     4    31    1
    34     8    32    1
    35     9    33    1
    36    10    34    1
    37    11    35    1
    38    15    36    1
    39    16    37    1
    40    17    38    1
    41    23    39    1
    42    24    40    1
    43    25    41    1
    44    28    42    1
    45    29    43    1
@<TRIPOS>MOLECULE
../data/bude_mols_rdkit_confs2/molecule_89.pdb
 43 45 0 0 0
SMALL
GASTEIGER

@<TRIPOS>ATOM
      1  O1         1.0060    0.1920    1.2870 O.2     1  UNL1       -0.2687
      2  C1         0.8300   -0.2370    0.1050 C.2     1  UNL1        0.2602
      3  N1         1.9430   -0.1570   -0.7420 N.am    1  UNL1       -0.2301
      4  N2         3.1990    0.3580   -0.2770 N.am    1  UNL1       -0.2300
      5  C2         4.3820   -0.3470   -0.5240 C.2     1  UNL1        0.2629
      6  O2         4.3070   -1.4490   -1.1830 O.2     1  UNL1       -0.2686
      7  C3         5.6880    0.0840   -0.0820 C.ar    1  UNL1        0.0733
      8  C4         6.8350   -0.4940   -0.6640 C.ar    1  UNL1       -0.0468
      9  C5         8.1070   -0.1430   -0.3150 C.ar    1  UNL1       -0.0609
     10  C6         8.3030    0.8200    0.6510 C.ar    1  UNL1       -0.0590
     11  C7         7.2080    1.4110    1.2460 C.ar    1  UNL1       -0.0257
     12  C8         5.9290    1.0350    0.8710 C.ar    1  UNL1        0.1355
     13  F1         4.9180    1.6370    1.4960 F       1  UNL1       -0.2047
     14  C9        -0.4640   -0.7730   -0.2890 C.ar    1  UNL1        0.0400
     15  C10       -0.6060   -1.4220   -1.5010 C.ar    1  UNL1       -0.0495
     16  C11       -1.8430   -1.9460   -1.8080 C.ar    1  UNL1       -0.0592
     17  C12       -2.8990   -1.8220   -0.9240 C.ar    1  UNL1       -0.0364
     18  C13       -2.7630   -1.1750    0.2850 C.ar    1  UNL1        0.0943
     19  S1        -4.0910   -1.0500    1.4090 S.O2    1  UNL1        0.0252
     20  O3        -4.7280   -2.4230    1.5740 O.2     1  UNL1       -0.1643
     21  O4        -3.5640   -0.6070    2.7620 O.2     1  UNL1       -0.1643
     22  C14       -5.2850    0.1190    0.9000 C.ar    1  UNL1        0.0963
     23  C15       -5.0790    1.4670    1.0720 C.ar    1  UNL1       -0.0363
     24  C16       -6.0130    2.4180    0.6950 C.ar    1  UNL1       -0.0572
     25  C17       -7.1780    2.0000    0.1360 C.ar    1  UNL1       -0.0263
     26  C18       -7.4160    0.6390   -0.0500 C.ar    1  UNL1        0.1252
     27  F2        -8.5940    0.2370   -0.6050 F       1  UNL1       -0.2054
     28  C19       -6.4810   -0.2910    0.3270 C.ar    1  UNL1       -0.0012
     29  C20       -1.5330   -0.6440    0.6070 C.ar    1  UNL1       -0.0243
     30 H           1.8618   -0.4602   -1.6751 H       1  UNL1        0.1731
     31 H           3.2284    1.2092    0.2169 H       1  UNL1        0.1731
     32 H           6.7065   -1.2173   -1.3888 H       1  UNL1        0.0626
     33 H           8.9151   -0.5950   -0.7707 H       1  UNL1        0.0618
     34 H           9.2586    1.0959    0.9262 H       1  UNL1        0.0618
     35 H           7.3418    2.1334    1.9707 H       1  UNL1        0.0646
     36 H           0.1879   -1.5112   -2.1543 H       1  UNL1        0.0625
     37 H          -1.9825   -2.4354   -2.7058 H       1  UNL1        0.0618
     38 H          -3.8147   -2.2253   -1.1768 H       1  UNL1        0.0637
     39 H          -4.1940    1.7830    1.4986 H       1  UNL1        0.0637
     40 H          -5.8274    3.4233    0.8360 H       1  UNL1        0.0619
     41 H          -7.8884    2.6911   -0.1516 H       1  UNL1        0.0646
     42 H          -6.6668   -1.2961    0.1846 H       1  UNL1        0.0665
     43 H          -1.3998   -0.1531    1.5049 H       1  UNL1        0.0644
@<TRIPOS>BOND
     1     1     2    2
     2     2     3   am
     3     2    14    1
     4     3     4    1
     5     4     5   am
     6     5     6    2
     7     5     7    1
     8     7     8   ar
     9     7    12   ar
    10     8     9   ar
    11     9    10   ar
    12    10    11   ar
    13    11    12   ar
    14    12    13    1
    15    14    15   ar
    16    14    29   ar
    17    15    16   ar
    18    16    17   ar
    19    17    18   ar
    20    18    19    1
    21    18    29   ar
    22    19    20    2
    23    19    21    2
    24    19    22    1
    25    22    23   ar
    26    22    28   ar
    27    23    24   ar
    28    24    25   ar
    29    25    26   ar
    30    26    27    1
    31    26    28   ar
    32     3    30    1
    33     4    31    1
    34     8    32    1
    35     9    33    1
    36    10    34    1
    37    11    35    1
    38    15    36    1
    39    16    37    1
    40    17    38    1
    41    23    39    1
    42    24    40    1
    43    25    41    1
    44    28    42    1
    45    29    43    1
@<TRIPOS>MOLECULE
../data/bude_mols_rdkit_confs2/molecule_89.pdb
 43 45 0 0 0
SMALL
GASTEIGER

@<TRIPOS>ATOM
      1  O1         1.7870   -1.6410   -1.8040 O.2     1  UNL1       -0.2687
      2  C1         0.9970   -1.1800   -0.9420 C.2     1  UNL1        0.2602
      3  N1         1.4730   -0.1380   -0.1360 N.am    1  UNL1       -0.2301
      4  N2         2.7840    0.4200   -0.2390 N.am    1  UNL1       -0.2300
      5  C2         3.6330    0.4240    0.8750 C.2     1  UNL1        0.2629
      6  O2         3.1380   -0.0920    1.9360 O.2     1  UNL1       -0.2686
      7  C3         4.9680    0.9620    0.8650 C.ar    1  UNL1        0.0733
      8  C4         5.6860    1.0010    2.0780 C.ar    1  UNL1       -0.0468
      9  C5         6.9470    1.5030    2.1310 C.ar    1  UNL1       -0.0609
     10  C6         7.5900    1.9950    1.0310 C.ar    1  UNL1       -0.0590
     11  C7         6.9320    1.9760   -0.1570 C.ar    1  UNL1       -0.0257
     12  C8         5.6310    1.4590   -0.2180 C.ar    1  UNL1        0.1355
     13  F1         5.0170    1.4550   -1.4310 F       1  UNL1       -0.2047
     14  C9        -0.3450   -1.7490   -0.8320 C.ar    1  UNL1        0.0400
     15  C10       -0.7190   -2.7550   -1.6970 C.ar    1  UNL1       -0.0495
     16  C11       -1.9770   -3.3020   -1.6070 C.ar    1  UNL1       -0.0592
     17  C12       -2.8900   -2.8760   -0.6720 C.ar    1  UNL1       -0.0364
     18  C13       -2.5210   -1.8700    0.1950 C.ar    1  UNL1        0.0943
     19  S1        -3.6350   -1.2850    1.4090 S.O2    1  UNL1        0.0252
     20  O3        -2.9150   -0.7890    2.6280 O.2     1  UNL1       -0.1643
     21  O4        -4.4860   -2.4520    1.8350 O.2     1  UNL1       -0.1643
     22  C14       -4.6240    0.0280    0.8140 C.ar    1  UNL1        0.0963
     23  C15       -5.8450   -0.2590    0.2300 C.ar    1  UNL1       -0.0363
     24  C16       -6.6790    0.7180   -0.2630 C.ar    1  UNL1       -0.0572
     25  C17       -6.2480    2.0220   -0.1540 C.ar    1  UNL1       -0.0263
     26  C18       -5.0440    2.3760    0.4160 C.ar    1  UNL1        0.1252
     27  F2        -4.6570    3.6540    0.5060 F       1  UNL1       -0.2054
     28  C19       -4.2550    1.3510    0.8910 C.ar    1  UNL1       -0.0012
     29  C20       -1.2600   -1.3280    0.0980 C.ar    1  UNL1       -0.0243
     30 H           0.8658    0.2332    0.5443 H       1  UNL1        0.1731
     31 H           3.0908    0.8018   -1.0930 H       1  UNL1        0.1731
     32 H           5.2461    0.6422    2.9398 H       1  UNL1        0.0626
     33 H           7.4387    1.5131    3.0383 H       1  UNL1        0.0618
     34 H           8.5487    2.3706    1.1006 H       1  UNL1        0.0618
     35 H           7.3870    2.3398   -1.0088 H       1  UNL1        0.0646
     36 H          -0.0562   -3.0967   -2.4104 H       1  UNL1        0.0625
     37 H          -2.2437   -4.0547   -2.2607 H       1  UNL1        0.0618
     38 H          -3.8297   -3.2994   -0.6203 H       1  UNL1        0.0637
     39 H          -6.1420   -1.2450    0.1615 H       1  UNL1        0.0637
     40 H          -7.5867    0.4845   -0.6950 H       1  UNL1        0.0619
     41 H          -6.8573    2.7715   -0.5174 H       1  UNL1        0.0646
     42 H          -3.3479    1.5861    1.3233 H       1  UNL1        0.0665
     43 H          -0.9925   -0.5750    0.7510 H       1  UNL1        0.0644
@<TRIPOS>BOND
     1     1     2    2
     2     2     3   am
     3     2    14    1
     4     3     4    1
     5     4     5   am
     6     5     6    2
     7     5     7    1
     8     7     8   ar
     9     7    12   ar
    10     8     9   ar
    11     9    10   ar
    12    10    11   ar
    13    11    12   ar
    14    12    13    1
    15    14    15   ar
    16    14    29   ar
    17    15    16   ar
    18    16    17   ar
    19    17    18   ar
    20    18    19    1
    21    18    29   ar
    22    19    20    2
    23    19    21    2
    24    19    22    1
    25    22    23   ar
    26    22    28   ar
    27    23    24   ar
    28    24    25   ar
    29    25    26   ar
    30    26    27    1
    31    26    28   ar
    32     3    30    1
    33     4    31    1
    34     8    32    1
    35     9    33    1
    36    10    34    1
    37    11    35    1
    38    15    36    1
    39    16    37    1
    40    17    38    1
    41    23    39    1
    42    24    40    1
    43    25    41    1
    44    28    42    1
    45    29    43    1
@<TRIPOS>MOLECULE
../data/bude_mols_rdkit_confs2/molecule_89.pdb
 43 45 0 0 0
SMALL
GASTEIGER

@<TRIPOS>ATOM
      1  O1         0.8590    0.3610   -1.5200 O.2     1  UNL1       -0.2687
      2  C1         0.8650   -0.7030   -0.8360 C.2     1  UNL1        0.2602
      3  N1         2.1160   -1.1140   -0.3220 N.am    1  UNL1       -0.2301
      4  N2         3.2950   -0.3560   -0.5770 N.am    1  UNL1       -0.2300
      5  C2         4.0020    0.1920    0.5050 C.2     1  UNL1        0.2629
      6  O2         3.5140   -0.0430    1.6720 O.2     1  UNL1       -0.2686
      7  C3         5.2110    0.9840    0.4430 C.ar    1  UNL1        0.0733
      8  C4         5.8330    1.3990    1.6290 C.ar    1  UNL1       -0.0468
      9  C5         6.9850    2.1470    1.6300 C.ar    1  UNL1       -0.0609
     10  C6         7.5970    2.5310    0.4580 C.ar    1  UNL1       -0.0590
     11  C7         6.9930    2.1270   -0.7070 C.ar    1  UNL1       -0.0257
     12  C8         5.8130    1.3620   -0.7250 C.ar    1  UNL1        0.1355
     13  F1         5.2970    1.0180   -1.9260 F       1  UNL1       -0.2047
     14  C9        -0.3690   -1.4570   -0.5980 C.ar    1  UNL1        0.0400
     15  C10       -0.3270   -2.6980   -0.0200 C.ar    1  UNL1       -0.0495
     16  C11       -1.5250   -3.3720    0.1830 C.ar    1  UNL1       -0.0592
     17  C12       -2.7190   -2.7990   -0.1910 C.ar    1  UNL1       -0.0364
     18  C13       -2.7950   -1.5540   -0.7740 C.ar    1  UNL1        0.0943
     19  S1        -4.3330   -0.8690   -1.2390 S.O2    1  UNL1        0.0252
     20  O3        -4.0940    0.0030   -2.4390 O.2     1  UNL1       -0.1643
     21  O4        -5.2480   -1.9870   -1.7060 O.2     1  UNL1       -0.1643
     22  C14       -5.1030    0.0020    0.0560 C.ar    1  UNL1        0.0963
     23  C15       -5.9960   -0.5900    0.9280 C.ar    1  UNL1       -0.0363
     24  C16       -6.5960    0.1190    1.9520 C.ar    1  UNL1       -0.0572
     25  C17       -6.3200    1.4530    2.1390 C.ar    1  UNL1       -0.0263
     26  C18       -5.4360    2.0610    1.2830 C.ar    1  UNL1        0.1252
     27  F2        -5.1710    3.3750    1.4750 F       1  UNL1       -0.2054
     28  C19       -4.8420    1.3370    0.2600 C.ar    1  UNL1       -0.0012
     29  C20       -1.5990   -0.9000   -0.9670 C.ar    1  UNL1       -0.0243
     30 H           2.1733   -1.9345    0.2191 H       1  UNL1        0.1731
     31 H           3.6097   -0.2183   -1.4996 H       1  UNL1        0.1731
     32 H           5.4107    1.1333    2.5324 H       1  UNL1        0.0626
     33 H           7.4020    2.4280    2.5312 H       1  UNL1        0.0618
     34 H           8.4630    3.0922    0.4553 H       1  UNL1        0.0618
     35 H           7.4224    2.3957   -1.6061 H       1  UNL1        0.0646
     36 H           0.5720   -3.1219    0.2578 H       1  UNL1        0.0625
     37 H          -1.5193   -4.3083    0.6170 H       1  UNL1        0.0618
     38 H          -3.5926   -3.3236   -0.0279 H       1  UNL1        0.0637
     39 H          -6.2217   -1.5903    0.8117 H       1  UNL1        0.0637
     40 H          -7.2585   -0.3583    2.5831 H       1  UNL1        0.0619
     41 H          -6.7662    1.9836    2.9035 H       1  UNL1        0.0646
     42 H          -4.1808    1.8169   -0.3705 H       1  UNL1        0.0665
     43 H          -1.6097    0.0366   -1.4002 H       1  UNL1        0.0644
@<TRIPOS>BOND
     1     1     2    2
     2     2     3   am
     3     2    14    1
     4     3     4    1
     5     4     5   am
     6     5     6    2
     7     5     7    1
     8     7     8   ar
     9     7    12   ar
    10     8     9   ar
    11     9    10   ar
    12    10    11   ar
    13    11    12   ar
    14    12    13    1
    15    14    15   ar
    16    14    29   ar
    17    15    16   ar
    18    16    17   ar
    19    17    18   ar
    20    18    19    1
    21    18    29   ar
    22    19    20    2
    23    19    21    2
    24    19    22    1
    25    22    23   ar
    26    22    28   ar
    27    23    24   ar
    28    24    25   ar
    29    25    26   ar
    30    26    27    1
    31    26    28   ar
    32     3    30    1
    33     4    31    1
    34     8    32    1
    35     9    33    1
    36    10    34    1
    37    11    35    1
    38    15    36    1
    39    16    37    1
    40    17    38    1
    41    23    39    1
    42    24    40    1
    43    25    41    1
    44    28    42    1
    45    29    43    1
@<TRIPOS>MOLECULE
../data/bude_mols_rdkit_confs2/molecule_89.pdb
 43 45 0 0 0
SMALL
GASTEIGER

@<TRIPOS>ATOM
      1  O1         0.8280    0.0810   -1.7240 O.2     1  UNL1       -0.2687
      2  C1         0.7380   -0.0820   -0.4820 C.2     1  UNL1        0.2602
      3  N1         1.9130   -0.3180    0.2620 N.am    1  UNL1       -0.2301
      4  N2         3.2240   -0.3970   -0.2820 N.am    1  UNL1       -0.2300
      5  C2         4.3390   -0.4660    0.5910 C.2     1  UNL1        0.2629
      6  O2         4.0570   -0.4460    1.8390 O.2     1  UNL1       -0.2686
      7  C3         5.7170   -0.5520    0.2430 C.ar    1  UNL1        0.0733
      8  C4         6.6930   -0.3690    1.2240 C.ar    1  UNL1       -0.0468
      9  C5         8.0370   -0.4380    0.9480 C.ar    1  UNL1       -0.0609
     10  C6         8.4820   -0.6950   -0.3260 C.ar    1  UNL1       -0.0590
     11  C7         7.5420   -0.8790   -1.3120 C.ar    1  UNL1       -0.0257
     12  C8         6.1840   -0.8060   -1.0130 C.ar    1  UNL1        0.1355
     13  F1         5.3480   -1.0140   -2.0620 F       1  UNL1       -0.2047
     14  C9        -0.5160   -0.0470    0.2700 C.ar    1  UNL1        0.0400
     15  C10       -0.6340   -0.9200    1.3360 C.ar    1  UNL1       -0.0495
     16  C11       -1.7420   -0.9470    2.1480 C.ar    1  UNL1       -0.0592
     17  C12       -2.7700   -0.0570    1.8700 C.ar    1  UNL1       -0.0364
     18  C13       -2.6980    0.8290    0.8190 C.ar    1  UNL1        0.0943
     19  S1        -3.9930    1.9860    0.5330 S.O2    1  UNL1        0.0252
     20  O3        -4.4150    2.5210    1.8790 O.2     1  UNL1       -0.1643
     21  O4        -3.4580    3.1080   -0.3110 O.2     1  UNL1       -0.1643
     22  C14       -5.3000    1.1440   -0.2480 C.ar    1  UNL1        0.0963
     23  C15       -6.2950    0.5880    0.5410 C.ar    1  UNL1       -0.0363
     24  C16       -7.3760   -0.0720   -0.0150 C.ar    1  UNL1       -0.0572
     25  C17       -7.4850   -0.1920   -1.3840 C.ar    1  UNL1       -0.0263
     26  C18       -6.4950    0.3610   -2.1630 C.ar    1  UNL1        0.1252
     27  F2        -6.6190    0.2390   -3.5210 F       1  UNL1       -0.2054
     28  C19       -5.4020    1.0270   -1.6120 C.ar    1  UNL1       -0.0012
     29  C20       -1.5580    0.8110    0.0330 C.ar    1  UNL1       -0.0243
     30 H           1.8176   -0.4374    1.2346 H       1  UNL1        0.1731
     31 H           3.3567   -0.4037   -1.2575 H       1  UNL1        0.1731
     32 H           6.3939   -0.1747    2.1924 H       1  UNL1        0.0626
     33 H           8.7210   -0.2949    1.7074 H       1  UNL1        0.0618
     34 H           9.4909   -0.7483   -0.5364 H       1  UNL1        0.0618
     35 H           7.8446   -1.0724   -2.2795 H       1  UNL1        0.0646
     36 H           0.1392   -1.5758    1.5288 H       1  UNL1        0.0625
     37 H          -1.8077   -1.6072    2.9385 H       1  UNL1        0.0618
     38 H          -3.6114   -0.0595    2.4676 H       1  UNL1        0.0637
     39 H          -6.2276    0.6684    1.5677 H       1  UNL1        0.0637
     40 H          -8.1027   -0.4756    0.5965 H       1  UNL1        0.0619
     41 H          -8.2859   -0.6824   -1.8120 H       1  UNL1        0.0646
     42 H          -4.6751    1.4290   -2.2244 H       1  UNL1        0.0665
     43 H          -1.4907    1.4677   -0.7602 H       1  UNL1        0.0644
@<TRIPOS>BOND
     1     1     2    2
     2     2     3   am
     3     2    14    1
     4     3     4    1
     5     4     5   am
     6     5     6    2
     7     5     7    1
     8     7     8   ar
     9     7    12   ar
    10     8     9   ar
    11     9    10   ar
    12    10    11   ar
    13    11    12   ar
    14    12    13    1
    15    14    15   ar
    16    14    29   ar
    17    15    16   ar
    18    16    17   ar
    19    17    18   ar
    20    18    19    1
    21    18    29   ar
    22    19    20    2
    23    19    21    2
    24    19    22    1
    25    22    23   ar
    26    22    28   ar
    27    23    24   ar
    28    24    25   ar
    29    25    26   ar
    30    26    27    1
    31    26    28   ar
    32     3    30    1
    33     4    31    1
    34     8    32    1
    35     9    33    1
    36    10    34    1
    37    11    35    1
    38    15    36    1
    39    16    37    1
    40    17    38    1
    41    23    39    1
    42    24    40    1
    43    25    41    1
    44    28    42    1
    45    29    43    1
@<TRIPOS>MOLECULE
../data/bude_mols_rdkit_confs2/molecule_89.pdb
 43 45 0 0 0
SMALL
GASTEIGER

@<TRIPOS>ATOM
      1  O1        -1.9460    2.2080   -0.3840 O.2     1  UNL1       -0.2687
      2  C1        -1.2300    1.1920   -0.4530 C.2     1  UNL1        0.2602
      3  N1        -1.8740   -0.0600   -0.6140 N.am    1  UNL1       -0.2301
      4  N2        -3.2580   -0.2600   -0.7020 N.am    1  UNL1       -0.2300
      5  C2        -4.1920   -0.0990    0.2990 C.2     1  UNL1        0.2629
      6  O2        -3.7090    0.2810    1.4390 O.2     1  UNL1       -0.2686
      7  C3        -5.6300   -0.2990    0.2640 C.ar    1  UNL1        0.0733
      8  C4        -6.3770   -0.1960    1.4500 C.ar    1  UNL1       -0.0468
      9  C5        -7.7340   -0.4010    1.4660 C.ar    1  UNL1       -0.0609
     10  C6        -8.4200   -0.7160    0.3180 C.ar    1  UNL1       -0.0590
     11  C7        -7.7200   -0.8250   -0.8600 C.ar    1  UNL1       -0.0257
     12  C8        -6.3410   -0.6150   -0.8680 C.ar    1  UNL1        0.1355
     13  F1        -5.6820   -0.7220   -2.0520 F       1  UNL1       -0.2047
     14  C9         0.2130    1.2570   -0.3740 C.ar    1  UNL1        0.0400
     15  C10        0.8390    2.4840   -0.3770 C.ar    1  UNL1       -0.0495
     16  C11        2.1960    2.6390   -0.3000 C.ar    1  UNL1       -0.0592
     17  C12        3.0050    1.5040   -0.2140 C.ar    1  UNL1       -0.0364
     18  C13        2.4320    0.2550   -0.2060 C.ar    1  UNL1        0.0943
     19  S1         3.4030   -1.1720   -0.1020 S.O2    1  UNL1        0.0252
     20  O3         3.1490   -2.0210   -1.3520 O.2     1  UNL1       -0.1643
     21  O4         3.0020   -2.0440    1.0870 O.2     1  UNL1       -0.1643
     22  C14        5.0880   -0.8680   -0.0100 C.ar    1  UNL1        0.0963
     23  C15        5.8890   -0.9750   -1.1490 C.ar    1  UNL1       -0.0363
     24  C16        7.2510   -0.7630   -1.1230 C.ar    1  UNL1       -0.0572
     25  C17        7.8480   -0.4300    0.0800 C.ar    1  UNL1       -0.0263
     26  C18        7.0780   -0.3110    1.2440 C.ar    1  UNL1        0.1252
     27  F2         7.6780    0.0210    2.3920 F       1  UNL1       -0.2054
     28  C19        5.7280   -0.5290    1.1820 C.ar    1  UNL1       -0.0012
     29  C20        1.0310    0.1600   -0.2890 C.ar    1  UNL1       -0.0243
     30 H          -1.2997   -0.8577   -0.6687 H       1  UNL1        0.1731
     31 H          -3.6025   -0.5482   -1.5781 H       1  UNL1        0.1731
     32 H          -5.8932    0.0396    2.3306 H       1  UNL1        0.0626
     33 H          -8.2485   -0.3170    2.3566 H       1  UNL1        0.0618
     34 H          -9.4406   -0.8678    0.3397 H       1  UNL1        0.0618
     35 H          -8.2129   -1.0613   -1.7353 H       1  UNL1        0.0646
     36 H           0.2532    3.3313   -0.4407 H       1  UNL1        0.0625
     37 H           2.6160    3.5816   -0.3054 H       1  UNL1        0.0618
     38 H           4.0306    1.6030   -0.1566 H       1  UNL1        0.0637
     39 H           5.4434   -1.2227   -2.0463 H       1  UNL1        0.0637
     40 H           7.8139   -0.8509   -1.9835 H       1  UNL1        0.0619
     41 H           8.8665   -0.2684    0.1199 H       1  UNL1        0.0646
     42 H           5.1667   -0.4398    2.0434 H       1  UNL1        0.0665
     43 H           0.5995   -0.7775   -0.2858 H       1  UNL1        0.0644
@<TRIPOS>BOND
     1     1     2    2
     2     2     3   am
     3     2    14    1
     4     3     4    1
     5     4     5   am
     6     5     6    2
     7     5     7    1
     8     7     8   ar
     9     7    12   ar
    10     8     9   ar
    11     9    10   ar
    12    10    11   ar
    13    11    12   ar
    14    12    13    1
    15    14    15   ar
    16    14    29   ar
    17    15    16   ar
    18    16    17   ar
    19    17    18   ar
    20    18    19    1
    21    18    29   ar
    22    19    20    2
    23    19    21    2
    24    19    22    1
    25    22    23   ar
    26    22    28   ar
    27    23    24   ar
    28    24    25   ar
    29    25    26   ar
    30    26    27    1
    31    26    28   ar
    32     3    30    1
    33     4    31    1
    34     8    32    1
    35     9    33    1
    36    10    34    1
    37    11    35    1
    38    15    36    1
    39    16    37    1
    40    17    38    1
    41    23    39    1
    42    24    40    1
    43    25    41    1
    44    28    42    1
    45    29    43    1
@<TRIPOS>MOLECULE
../data/bude_mols_rdkit_confs2/molecule_89.pdb
 43 45 0 0 0
SMALL
GASTEIGER

@<TRIPOS>ATOM
      1  O1        -0.7420    0.7850    0.9240 O.2     1  UNL1       -0.2687
      2  C1        -0.6510   -0.2670    0.2510 C.2     1  UNL1        0.2602
      3  N1        -1.8290   -0.7500   -0.3680 N.am    1  UNL1       -0.2301
      4  N2        -3.0850   -0.1070   -0.2640 N.am    1  UNL1       -0.2300
      5  C2        -4.2180   -0.7220    0.2450 C.2     1  UNL1        0.2629
      6  O2        -4.0730   -1.9360    0.6290 O.2     1  UNL1       -0.2686
      7  C3        -5.5260   -0.1370    0.3830 C.ar    1  UNL1        0.0733
      8  C4        -6.5640   -0.8470    1.0040 C.ar    1  UNL1       -0.0468
      9  C5        -7.8230   -0.3610    1.1850 C.ar    1  UNL1       -0.0609
     10  C6        -8.1300    0.9070    0.7390 C.ar    1  UNL1       -0.0590
     11  C7        -7.1540    1.6490    0.1230 C.ar    1  UNL1       -0.0257
     12  C8        -5.8660    1.1170   -0.0460 C.ar    1  UNL1        0.1355
     13  F1        -4.9630    1.9150   -0.6710 F       1  UNL1       -0.2047
     14  C9         0.6380   -0.9460    0.1320 C.ar    1  UNL1        0.0400
     15  C10        0.8690   -2.0800    0.8620 C.ar    1  UNL1       -0.0495
     16  C11        2.0700   -2.7880    0.7970 C.ar    1  UNL1       -0.0592
     17  C12        3.0560   -2.3070   -0.0460 C.ar    1  UNL1       -0.0364
     18  C13        2.8380   -1.1560   -0.7970 C.ar    1  UNL1        0.0943
     19  S1         4.1140   -0.5930   -1.8520 S.O2    1  UNL1        0.0252
     20  O3         3.5440    0.1090   -3.0510 O.2     1  UNL1       -0.1643
     21  O4         4.9960   -1.7120   -2.3180 O.2     1  UNL1       -0.1643
     22  C14        5.0700    0.5500   -0.9330 C.ar    1  UNL1        0.0963
     23  C15        6.1570    0.1510   -0.1860 C.ar    1  UNL1       -0.0363
     24  C16        6.9160    1.0410    0.5440 C.ar    1  UNL1       -0.0572
     25  C17        6.5770    2.3850    0.5280 C.ar    1  UNL1       -0.0263
     26  C18        5.5040    2.8140   -0.2020 C.ar    1  UNL1        0.1252
     27  F2         5.2030    4.1340   -0.1930 F       1  UNL1       -0.2054
     28  C19        4.7490    1.8920   -0.9350 C.ar    1  UNL1       -0.0012
     29  C20        1.6270   -0.4780   -0.7050 C.ar    1  UNL1       -0.0243
     30 H          -1.7712   -1.5771   -0.8989 H       1  UNL1        0.1731
     31 H          -3.1580    0.8262   -0.5692 H       1  UNL1        0.1731
     32 H          -6.3604   -1.7992    1.3458 H       1  UNL1        0.0626
     33 H          -8.5411   -0.9367    1.6519 H       1  UNL1        0.0618
     34 H          -9.0790    1.2920    0.8665 H       1  UNL1        0.0618
     35 H          -7.3672    2.5999   -0.2167 H       1  UNL1        0.0646
     36 H           0.1241   -2.4262    1.4867 H       1  UNL1        0.0625
     37 H           2.2176   -3.6412    1.3586 H       1  UNL1        0.0618
     38 H           3.9574   -2.8042   -0.1182 H       1  UNL1        0.0637
     39 H           6.4119   -0.8489   -0.1725 H       1  UNL1        0.0637
     40 H           7.7245    0.7114    1.0942 H       1  UNL1        0.0619
     41 H           7.1361    3.0634    1.0686 H       1  UNL1        0.0646
     42 H           3.9401    2.2204   -1.4853 H       1  UNL1        0.0665
     43 H           1.4695    0.3753   -1.2636 H       1  UNL1        0.0644
@<TRIPOS>BOND
     1     1     2    2
     2     2     3   am
     3     2    14    1
     4     3     4    1
     5     4     5   am
     6     5     6    2
     7     5     7    1
     8     7     8   ar
     9     7    12   ar
    10     8     9   ar
    11     9    10   ar
    12    10    11   ar
    13    11    12   ar
    14    12    13    1
    15    14    15   ar
    16    14    29   ar
    17    15    16   ar
    18    16    17   ar
    19    17    18   ar
    20    18    19    1
    21    18    29   ar
    22    19    20    2
    23    19    21    2
    24    19    22    1
    25    22    23   ar
    26    22    28   ar
    27    23    24   ar
    28    24    25   ar
    29    25    26   ar
    30    26    27    1
    31    26    28   ar
    32     3    30    1
    33     4    31    1
    34     8    32    1
    35     9    33    1
    36    10    34    1
    37    11    35    1
    38    15    36    1
    39    16    37    1
    40    17    38    1
    41    23    39    1
    42    24    40    1
    43    25    41    1
    44    28    42    1
    45    29    43    1
@<TRIPOS>MOLECULE
../data/bude_mols_rdkit_confs2/molecule_89.pdb
 43 45 0 0 0
SMALL
GASTEIGER

@<TRIPOS>ATOM
      1  O1        -1.7730   -1.9780    0.5470 O.2     1  UNL1       -0.2687
      2  C1        -0.9290   -1.4600   -0.2130 C.2     1  UNL1        0.2602
      3  N1        -1.4110   -0.5630   -1.1960 N.am    1  UNL1       -0.2301
      4  N2        -2.7890   -0.2960   -1.2790 N.am    1  UNL1       -0.2300
      5  C2        -3.4910    0.3310   -0.2250 C.2     1  UNL1        0.2629
      6  O2        -2.7960    0.6420    0.7990 O.2     1  UNL1       -0.2686
      7  C3        -4.9160    0.6330   -0.2410 C.ar    1  UNL1        0.0733
      8  C4        -5.4600    1.3910    0.8080 C.ar    1  UNL1       -0.0468
      9  C5        -6.7950    1.7090    0.8360 C.ar    1  UNL1       -0.0609
     10  C6        -7.6750    1.3120   -0.1470 C.ar    1  UNL1       -0.0590
     11  C7        -7.1510    0.5720   -1.1730 C.ar    1  UNL1       -0.0257
     12  C8        -5.7880    0.2380   -1.2170 C.ar    1  UNL1        0.1355
     13  F1        -5.3530   -0.5060   -2.2660 F       1  UNL1       -0.2047
     14  C9         0.4760   -1.7720   -0.0880 C.ar    1  UNL1        0.0400
     15  C10        0.8180   -2.8940    0.6670 C.ar    1  UNL1       -0.0495
     16  C11        2.1320   -3.2250    0.8100 C.ar    1  UNL1       -0.0592
     17  C12        3.0920   -2.4430    0.2060 C.ar    1  UNL1       -0.0364
     18  C13        2.7790   -1.3310   -0.5440 C.ar    1  UNL1        0.0943
     19  S1         4.0550   -0.3730   -1.2930 S.O2    1  UNL1        0.0252
     20  O3         3.5500    0.3170   -2.5240 O.2     1  UNL1       -0.1643
     21  O4         5.2150   -1.2450   -1.6720 O.2     1  UNL1       -0.1643
     22  C14        4.6240    0.7870   -0.1030 C.ar    1  UNL1        0.0963
     23  C15        4.0670    2.0340    0.0710 C.ar    1  UNL1       -0.0363
     24  C16        4.5530    2.9250    1.0270 C.ar    1  UNL1       -0.0572
     25  C17        5.6110    2.5680    1.8230 C.ar    1  UNL1       -0.0263
     26  C18        6.1720    1.3270    1.6560 C.ar    1  UNL1        0.1252
     27  F2         7.2310    0.9010    2.4100 F       1  UNL1       -0.2054
     28  C19        5.6900    0.4320    0.7000 C.ar    1  UNL1       -0.0012
     29  C20        1.4380   -0.9940   -0.6890 C.ar    1  UNL1       -0.0243
     30 H          -0.7845   -0.1281   -1.8186 H       1  UNL1        0.1731
     31 H          -3.2782   -0.5529   -2.0938 H       1  UNL1        0.1731
     32 H          -4.8455    1.7147    1.5713 H       1  UNL1        0.0626
     33 H          -7.1542    2.2682    1.6255 H       1  UNL1        0.0618
     34 H          -8.6763    1.5593   -0.1119 H       1  UNL1        0.0618
     35 H          -7.7727    0.2521   -1.9320 H       1  UNL1        0.0646
     36 H           0.0841   -3.4669    1.1122 H       1  UNL1        0.0625
     37 H           2.4048   -4.0517    1.3642 H       1  UNL1        0.0618
     38 H           4.0848   -2.7006    0.3200 H       1  UNL1        0.0637
     39 H           3.2700    2.3162   -0.5208 H       1  UNL1        0.0637
     40 H           4.1162    3.8537    1.1356 H       1  UNL1        0.0619
     41 H           5.9781    3.2200    2.5338 H       1  UNL1        0.0646
     42 H           6.1302   -0.4953    0.5930 H       1  UNL1        0.0665
     43 H           1.1665   -0.1668   -1.2431 H       1  UNL1        0.0644
@<TRIPOS>BOND
     1     1     2    2
     2     2     3   am
     3     2    14    1
     4     3     4    1
     5     4     5   am
     6     5     6    2
     7     5     7    1
     8     7     8   ar
     9     7    12   ar
    10     8     9   ar
    11     9    10   ar
    12    10    11   ar
    13    11    12   ar
    14    12    13    1
    15    14    15   ar
    16    14    29   ar
    17    15    16   ar
    18    16    17   ar
    19    17    18   ar
    20    18    19    1
    21    18    29   ar
    22    19    20    2
    23    19    21    2
    24    19    22    1
    25    22    23   ar
    26    22    28   ar
    27    23    24   ar
    28    24    25   ar
    29    25    26   ar
    30    26    27    1
    31    26    28   ar
    32     3    30    1
    33     4    31    1
    34     8    32    1
    35     9    33    1
    36    10    34    1
    37    11    35    1
    38    15    36    1
    39    16    37    1
    40    17    38    1
    41    23    39    1
    42    24    40    1
    43    25    41    1
    44    28    42    1
    45    29    43    1
@<TRIPOS>MOLECULE
../data/bude_mols_rdkit_confs2/molecule_89.pdb
 43 45 0 0 0
SMALL
GASTEIGER

@<TRIPOS>ATOM
      1  O1         1.7420   -2.5830   -0.6830 O.2     1  UNL1       -0.2687
      2  C1         1.0230   -1.5670   -0.8880 C.2     1  UNL1        0.2602
      3  N1         1.5570   -0.2600   -0.8740 N.am    1  UNL1       -0.2301
      4  N2         2.9630   -0.1620   -0.6210 N.am    1  UNL1       -0.2300
      5  C2         3.4440    0.7470    0.3320 C.2     1  UNL1        0.2629
      6  O2         2.6350    1.4930    0.9900 O.2     1  UNL1       -0.2686
      7  C3         4.8520    0.9090    0.6390 C.ar    1  UNL1        0.0733
      8  C4         5.2440    1.5890    1.7970 C.ar    1  UNL1       -0.0468
      9  C5         6.5400    1.7640    2.1620 C.ar    1  UNL1       -0.0609
     10  C6         7.5340    1.2590    1.3710 C.ar    1  UNL1       -0.0590
     11  C7         7.2040    0.5840    0.2220 C.ar    1  UNL1       -0.0257
     12  C8         5.8640    0.4070   -0.1470 C.ar    1  UNL1        0.1355
     13  F1         5.6540   -0.2480   -1.2870 F       1  UNL1       -0.2047
     14  C9        -0.4000   -1.7450   -1.1480 C.ar    1  UNL1        0.0400
     15  C10       -0.9240   -3.0430   -1.2810 C.ar    1  UNL1       -0.0495
     16  C11       -2.2570   -3.2710   -1.5390 C.ar    1  UNL1       -0.0592
     17  C12       -3.1210   -2.2040   -1.6740 C.ar    1  UNL1       -0.0364
     18  C13       -2.6440   -0.9110   -1.5490 C.ar    1  UNL1        0.0943
     19  S1        -3.7550    0.4560   -1.7310 S.O2    1  UNL1        0.0252
     20  O3        -4.6940    0.2590   -2.8710 O.2     1  UNL1       -0.1643
     21  O4        -2.8880    1.6640   -2.0210 O.2     1  UNL1       -0.1643
     22  C14       -4.5600    0.7100   -0.2070 C.ar    1  UNL1        0.0963
     23  C15       -5.7460    0.0680    0.0230 C.ar    1  UNL1       -0.0363
     24  C16       -6.4540    0.2080    1.2210 C.ar    1  UNL1       -0.0572
     25  C17       -5.9130    1.0390    2.2040 C.ar    1  UNL1       -0.0263
     26  C18       -4.7130    1.6990    1.9890 C.ar    1  UNL1        0.1252
     27  F2        -4.1960    2.5030    2.9480 F       1  UNL1       -0.2054
     28  C19       -4.0490    1.5200    0.7730 C.ar    1  UNL1       -0.0012
     29  C20       -1.2960   -0.7090   -1.2890 C.ar    1  UNL1       -0.0243
     30 H           0.9972    0.5349   -1.0286 H       1  UNL1        0.1731
     31 H           3.5927   -0.7336   -1.1169 H       1  UNL1        0.1731
     32 H           4.5083    1.9787    2.4068 H       1  UNL1        0.0626
     33 H           6.7726    2.2736    3.0287 H       1  UNL1        0.0618
     34 H           8.5237    1.3841    1.6352 H       1  UNL1        0.0618
     35 H           7.9523    0.2022   -0.3774 H       1  UNL1        0.0646
     36 H          -0.2891   -3.8506   -1.1821 H       1  UNL1        0.0625
     37 H          -2.6087   -4.2368   -1.6311 H       1  UNL1        0.0618
     38 H          -4.1210   -2.3697   -1.8678 H       1  UNL1        0.0637
     39 H          -6.1323   -0.5419   -0.7144 H       1  UNL1        0.0637
     40 H          -7.3468   -0.2866    1.3734 H       1  UNL1        0.0619
     41 H          -6.4112    1.1631    3.0992 H       1  UNL1        0.0646
     42 H          -3.1546    2.0082    0.6093 H       1  UNL1        0.0665
     43 H          -0.9502    0.2590   -1.1974 H       1  UNL1        0.0644
@<TRIPOS>BOND
     1     1     2    2
     2     2     3   am
     3     2    14    1
     4     3     4    1
     5     4     5   am
     6     5     6    2
     7     5     7    1
     8     7     8   ar
     9     7    12   ar
    10     8     9   ar
    11     9    10   ar
    12    10    11   ar
    13    11    12   ar
    14    12    13    1
    15    14    15   ar
    16    14    29   ar
    17    15    16   ar
    18    16    17   ar
    19    17    18   ar
    20    18    19    1
    21    18    29   ar
    22    19    20    2
    23    19    21    2
    24    19    22    1
    25    22    23   ar
    26    22    28   ar
    27    23    24   ar
    28    24    25   ar
    29    25    26   ar
    30    26    27    1
    31    26    28   ar
    32     3    30    1
    33     4    31    1
    34     8    32    1
    35     9    33    1
    36    10    34    1
    37    11    35    1
    38    15    36    1
    39    16    37    1
    40    17    38    1
    41    23    39    1
    42    24    40    1
    43    25    41    1
    44    28    42    1
    45    29    43    1
@<TRIPOS>MOLECULE
../data/bude_mols_rdkit_confs2/molecule_89.pdb
 43 45 0 0 0
SMALL
GASTEIGER

@<TRIPOS>ATOM
      1  O1         1.6680    0.2920   -1.1060 O.2     1  UNL1       -0.2687
      2  C1         1.1780    0.1840    0.0630 C.2     1  UNL1        0.2602
      3  N1         1.9510    0.4500    1.2080 N.am    1  UNL1       -0.2301
      4  N2         3.3000    0.8340    0.9680 N.am    1  UNL1       -0.2300
      5  C2         4.2550   -0.1030    0.5210 C.2     1  UNL1        0.2629
      6  O2         3.7480   -1.2970    0.3840 O.2     1  UNL1       -0.2686
      7  C3         5.6430    0.1100    0.2190 C.ar    1  UNL1        0.0733
      8  C4         6.4260   -0.9520   -0.2780 C.ar    1  UNL1       -0.0468
      9  C5         7.7570   -0.8170   -0.5910 C.ar    1  UNL1       -0.0609
     10  C6         8.3560    0.4090   -0.4130 C.ar    1  UNL1       -0.0590
     11  C7         7.6510    1.4800    0.0650 C.ar    1  UNL1       -0.0257
     12  C8         6.2840    1.2910    0.3730 C.ar    1  UNL1        0.1355
     13  F1         5.6390    2.3910    0.8530 F       1  UNL1       -0.2047
     14  C9        -0.2220   -0.2300    0.1100 C.ar    1  UNL1        0.0400
     15  C10       -0.5490   -1.2890    0.9150 C.ar    1  UNL1       -0.0495
     16  C11       -1.8650   -1.7040    0.9440 C.ar    1  UNL1       -0.0592
     17  C12       -2.8230   -1.0490    0.1670 C.ar    1  UNL1       -0.0364
     18  C13       -2.4950    0.0130   -0.6380 C.ar    1  UNL1        0.0943
     19  S1        -3.7230    0.7500   -1.6300 S.O2    1  UNL1        0.0252
     20  O3        -3.3540    2.1640   -2.0000 O.2     1  UNL1       -0.1643
     21  O4        -3.8960    0.0020   -2.8950 O.2     1  UNL1       -0.1643
     22  C14       -5.2570    0.7150   -0.7770 C.ar    1  UNL1        0.0963
     23  C15       -6.1200   -0.3690   -0.9680 C.ar    1  UNL1       -0.0363
     24  C16       -7.3350   -0.4490   -0.3350 C.ar    1  UNL1       -0.0572
     25  C17       -7.7440    0.5460    0.5150 C.ar    1  UNL1       -0.0263
     26  C18       -6.9170    1.6350    0.7310 C.ar    1  UNL1        0.1252
     27  F2        -7.3100    2.6450    1.5830 F       1  UNL1       -0.2054
     28  C19       -5.7050    1.6880    0.0810 C.ar    1  UNL1       -0.0012
     29  C20       -1.1850    0.4170   -0.6580 C.ar    1  UNL1       -0.0243
     30 H           1.5820    0.3752    2.1177 H       1  UNL1        0.1731
     31 H           3.5712    1.7687    1.1163 H       1  UNL1        0.1731
     32 H           5.9791   -1.8724   -0.4128 H       1  UNL1        0.0626
     33 H           8.2967   -1.6190   -0.9524 H       1  UNL1        0.0618
     34 H           9.3553    0.5228   -0.6442 H       1  UNL1        0.0618
     35 H           8.1035    2.3981    0.1967 H       1  UNL1        0.0646
     36 H           0.1691   -1.7636    1.4843 H       1  UNL1        0.0625
     37 H          -2.1415   -2.4994    1.5406 H       1  UNL1        0.0618
     38 H          -3.8027   -1.3719    0.1990 H       1  UNL1        0.0637
     39 H          -5.8348   -1.1307   -1.6033 H       1  UNL1        0.0637
     40 H          -7.9456   -1.2645   -0.5001 H       1  UNL1        0.0619
     41 H          -8.6587    0.4838    0.9888 H       1  UNL1        0.0646
     42 H          -5.0985    2.5060    0.2483 H       1  UNL1        0.0665
     43 H          -0.9087    1.2141   -1.2524 H       1  UNL1        0.0644
@<TRIPOS>BOND
     1     1     2    2
     2     2     3   am
     3     2    14    1
     4     3     4    1
     5     4     5   am
     6     5     6    2
     7     5     7    1
     8     7     8   ar
     9     7    12   ar
    10     8     9   ar
    11     9    10   ar
    12    10    11   ar
    13    11    12   ar
    14    12    13    1
    15    14    15   ar
    16    14    29   ar
    17    15    16   ar
    18    16    17   ar
    19    17    18   ar
    20    18    19    1
    21    18    29   ar
    22    19    20    2
    23    19    21    2
    24    19    22    1
    25    22    23   ar
    26    22    28   ar
    27    23    24   ar
    28    24    25   ar
    29    25    26   ar
    30    26    27    1
    31    26    28   ar
    32     3    30    1
    33     4    31    1
    34     8    32    1
    35     9    33    1
    36    10    34    1
    37    11    35    1
    38    15    36    1
    39    16    37    1
    40    17    38    1
    41    23    39    1
    42    24    40    1
    43    25    41    1
    44    28    42    1
    45    29    43    1
@<TRIPOS>MOLECULE
../data/bude_mols_rdkit_confs2/molecule_89.pdb
 43 45 0 0 0
SMALL
GASTEIGER

@<TRIPOS>ATOM
      1  O1         1.4110    0.9610   -1.6110 O.2     1  UNL1       -0.2687
      2  C1         1.0810    0.2020   -0.6550 C.2     1  UNL1        0.2602
      3  N1         1.9990   -0.1270    0.3790 N.am    1  UNL1       -0.2301
      4  N2         3.3330    0.3580    0.3900 N.am    1  UNL1       -0.2300
      5  C2         4.4050   -0.5370    0.6220 C.2     1  UNL1        0.2629
      6  O2         4.0930   -1.7550    0.8070 O.2     1  UNL1       -0.2686
      7  C3         5.8040   -0.1200    0.6510 C.ar    1  UNL1        0.0733
      8  C4         6.7520   -1.0240    1.1900 C.ar    1  UNL1       -0.0468
      9  C5         8.0690   -0.6830    1.2720 C.ar    1  UNL1       -0.0609
     10  C6         8.5330    0.5510    0.8350 C.ar    1  UNL1       -0.0590
     11  C7         7.6370    1.4420    0.3110 C.ar    1  UNL1       -0.0257
     12  C8         6.2800    1.0870    0.2270 C.ar    1  UNL1        0.1355
     13  F1         5.4220    1.9890   -0.3190 F       1  UNL1       -0.2047
     14  C9        -0.2770   -0.3640   -0.5990 C.ar    1  UNL1        0.0400
     15  C10       -0.3910   -1.6330   -0.0350 C.ar    1  UNL1       -0.0495
     16  C11       -1.6510   -2.1940    0.0400 C.ar    1  UNL1       -0.0592
     17  C12       -2.7540   -1.5070   -0.4350 C.ar    1  UNL1       -0.0364
     18  C13       -2.6600   -0.2540   -0.9920 C.ar    1  UNL1        0.0943
     19  S1        -3.9910    0.6640   -1.6200 S.O2    1  UNL1        0.0252
     20  O3        -3.6700    2.1050   -1.5270 O.2     1  UNL1       -0.1643
     21  O4        -4.1900    0.2430   -3.0410 O.2     1  UNL1       -0.1643
     22  C14       -5.4490    0.3720   -0.6930 C.ar    1  UNL1        0.0963
     23  C15       -6.5710   -0.0580   -1.4100 C.ar    1  UNL1       -0.0363
     24  C16       -7.7460   -0.3570   -0.7980 C.ar    1  UNL1       -0.0572
     25  C17       -7.8510   -0.2390    0.5680 C.ar    1  UNL1       -0.0263
     26  C18       -6.7360    0.1860    1.2800 C.ar    1  UNL1        0.1252
     27  F2        -6.8720    0.2800    2.6350 F       1  UNL1       -0.2054
     28  C19       -5.5410    0.4930    0.6650 C.ar    1  UNL1       -0.0012
     29  C20       -1.3870    0.3050   -1.0630 C.ar    1  UNL1       -0.0243
     30 H           1.6994   -0.7112    1.1126 H       1  UNL1        0.1731
     31 H           3.5121    1.3139    0.2368 H       1  UNL1        0.1731
     32 H           6.4423   -1.9501    1.5239 H       1  UNL1        0.0626
     33 H           8.7393   -1.3597    1.6693 H       1  UNL1        0.0618
     34 H           9.5343    0.7911    0.9043 H       1  UNL1        0.0618
     35 H           7.9548    2.3665   -0.0196 H       1  UNL1        0.0646
     36 H           0.4386   -2.1371    0.3152 H       1  UNL1        0.0625
     37 H          -1.7705   -3.1321    0.4532 H       1  UNL1        0.0618
     38 H          -3.6826   -1.9523   -0.3686 H       1  UNL1        0.0637
     39 H          -6.5036   -0.1508   -2.4356 H       1  UNL1        0.0637
     40 H          -8.5558   -0.6711   -1.3552 H       1  UNL1        0.0619
     41 H          -8.7352   -0.4604    1.0519 H       1  UNL1        0.0646
     42 H          -4.7304    0.8086    1.2203 H       1  UNL1        0.0665
     43 H          -1.2726    1.2447   -1.4739 H       1  UNL1        0.0644
@<TRIPOS>BOND
     1     1     2    2
     2     2     3   am
     3     2    14    1
     4     3     4    1
     5     4     5   am
     6     5     6    2
     7     5     7    1
     8     7     8   ar
     9     7    12   ar
    10     8     9   ar
    11     9    10   ar
    12    10    11   ar
    13    11    12   ar
    14    12    13    1
    15    14    15   ar
    16    14    29   ar
    17    15    16   ar
    18    16    17   ar
    19    17    18   ar
    20    18    19    1
    21    18    29   ar
    22    19    20    2
    23    19    21    2
    24    19    22    1
    25    22    23   ar
    26    22    28   ar
    27    23    24   ar
    28    24    25   ar
    29    25    26   ar
    30    26    27    1
    31    26    28   ar
    32     3    30    1
    33     4    31    1
    34     8    32    1
    35     9    33    1
    36    10    34    1
    37    11    35    1
    38    15    36    1
    39    16    37    1
    40    17    38    1
    41    23    39    1
    42    24    40    1
    43    25    41    1
    44    28    42    1
    45    29    43    1
