@<TRIPOS>MOLECULE
../data/bude_mols_rdkit_confs2/molecule_6.pdb
 47 50 0 0 0
SMALL
GASTEIGER

@<TRIPOS>ATOM
      1  N1        -5.1530    1.0310    1.9430 N.pl3   1  UNL1       -0.3431
      2  C1        -4.2230   -0.0010    1.6560 C.ar    1  UNL1        0.1167
      3  C2        -3.5380   -0.0180    0.4580 C.ar    1  UNL1       -0.0143
      4  C3        -2.6320   -0.9950    0.1370 C.ar    1  UNL1       -0.0100
      5  C4        -1.8990   -1.0180   -1.1160 C.ar    1  UNL1        0.0230
      6  C5        -1.7840   -2.1120   -1.9880 C.ar    1  UNL1        0.0303
      7  N2        -1.0460   -1.7250   -3.0120 N.ar    1  UNL1       -0.2839
      8  N3        -0.6890   -0.4700   -2.8520 N.ar    1  UNL1       -0.1779
      9  C6        -1.2030    0.0010   -1.6810 C.ar    1  UNL1        0.0751
     10  C7        -0.9870    1.3710   -1.1970 C.3     1  UNL1        0.0208
     11  C8        -0.0030    2.1210   -2.1120 C.3     1  UNL1       -0.0274
     12  C9         0.9660    2.7940   -1.1620 C.3     1  UNL1        0.0153
     13  N4         1.1100    1.7240   -0.1630 N.am    1  UNL1       -0.3006
     14  C10        2.3210    1.2880    0.3700 C.2     1  UNL1        0.2187
     15  O1         3.4240    1.8330    0.0210 O.2     1  UNL1       -0.2753
     16  C11        2.4090    0.1850    1.3560 C.3     1  UNL1        0.0358
     17  C12        3.8160    0.1420    1.9690 C.3     1  UNL1       -0.0419
     18  C13        4.6240   -0.7070    1.0350 C.3     1  UNL1       -0.0523
     19  C14        3.6640   -1.4930    0.2150 C.3     1  UNL1       -0.0523
     20  C15        2.2660   -1.1070    0.6140 C.3     1  UNL1       -0.0419
     21  C16       -0.2140    1.2870    0.1190 C.3     1  UNL1        0.0230
     22  C17       -2.4290   -1.9810    1.0760 C.ar    1  UNL1       -0.0356
     23  C18       -3.1240   -1.9590    2.2850 C.ar    1  UNL1        0.0302
     24  N5        -4.0000   -0.9720    2.5410 N.ar    1  UNL1       -0.2407
     25 H          -5.3136    1.7458    1.2853 H       1  UNL1        0.1437
     26 H          -5.6378    1.0325    2.7999 H       1  UNL1        0.1437
     27 H          -3.7153    0.7359   -0.2241 H       1  UNL1        0.0658
     28 H          -2.1999   -3.0469   -1.8534 H       1  UNL1        0.0830
     29 H          -0.8002   -2.2907   -3.7793 H       1  UNL1        0.1882
     30 H          -1.9421    1.8496   -1.1366 H       1  UNL1        0.0380
     31 H          -0.5177    2.8484   -2.7044 H       1  UNL1        0.0287
     32 H           0.4913    1.4663   -2.7990 H       1  UNL1        0.0287
     33 H           0.5536    3.6848   -0.7361 H       1  UNL1        0.0465
     34 H           1.8804    3.1285   -1.6058 H       1  UNL1        0.0465
     35 H           1.6595    0.3297    2.1058 H       1  UNL1        0.0394
     36 H           3.7872   -0.2961    2.9448 H       1  UNL1        0.0272
     37 H           4.2333    1.1207    2.0831 H       1  UNL1        0.0272
     38 H           5.2559   -1.3664    1.5925 H       1  UNL1        0.0265
     39 H           5.2477   -0.0999    0.4126 H       1  UNL1        0.0265
     40 H           3.8130   -2.5383    0.3883 H       1  UNL1        0.0265
     41 H           3.8176   -1.2893   -0.8241 H       1  UNL1        0.0265
     42 H           1.6519   -0.9756   -0.2523 H       1  UNL1        0.0272
     43 H           1.7997   -1.8612    1.2128 H       1  UNL1        0.0272
     44 H          -0.2023    0.2789    0.4774 H       1  UNL1        0.0471
     45 H          -0.6690    1.8923    0.8749 H       1  UNL1        0.0471
     46 H          -1.7582   -2.7414    0.8841 H       1  UNL1        0.0639
     47 H          -2.9655   -2.7015    2.9840 H       1  UNL1        0.0830
@<TRIPOS>BOND
     1     1     2    1
     2     2     3   ar
     3     2    24   ar
     4     3     4   ar
     5     4     5    1
     6     4    22   ar
     7     5     6   ar
     8     5     9   ar
     9     6     7   ar
    10     7     8   ar
    11     8     9   ar
    12     9    10    1
    13    10    11    1
    14    10    21    1
    15    11    12    1
    16    12    13    1
    17    13    14   am
    18    13    21    1
    19    14    15    2
    20    14    16    1
    21    16    17    1
    22    16    20    1
    23    17    18    1
    24    18    19    1
    25    19    20    1
    26    22    23   ar
    27    23    24   ar
    28     1    25    1
    29     1    26    1
    30     3    27    1
    31     6    28    1
    32     7    29    1
    33    10    30    1
    34    11    31    1
    35    11    32    1
    36    12    33    1
    37    12    34    1
    38    16    35    1
    39    17    36    1
    40    17    37    1
    41    18    38    1
    42    18    39    1
    43    19    40    1
    44    19    41    1
    45    20    42    1
    46    20    43    1
    47    21    44    1
    48    21    45    1
    49    22    46    1
    50    23    47    1
@<TRIPOS>MOLECULE
../data/bude_mols_rdkit_confs2/molecule_6.pdb
 47 50 0 0 0
SMALL
GASTEIGER

@<TRIPOS>ATOM
      1  N1        -5.3090    3.0290   -0.4000 N.pl3   1  UNL1       -0.3431
      2  C1        -4.4850    2.0500    0.1830 C.ar    1  UNL1        0.1167
      3  C2        -4.0020    0.9730   -0.5840 C.ar    1  UNL1       -0.0143
      4  C3        -3.2520   -0.0140    0.0270 C.ar    1  UNL1       -0.0100
      5  C4        -2.8920   -1.2320   -0.6770 C.ar    1  UNL1        0.0230
      6  C5        -3.8580   -1.9440   -1.4260 C.ar    1  UNL1        0.0303
      7  N2        -3.2750   -3.0550   -1.8730 N.ar    1  UNL1       -0.2839
      8  N3        -2.0610   -3.0860   -1.4660 N.ar    1  UNL1       -0.1779
      9  C6        -1.7680   -1.9310   -0.6980 C.ar    1  UNL1        0.0751
     10  C7        -0.4010   -1.7570   -0.2870 C.3     1  UNL1        0.0208
     11  C8        -0.0390   -2.7370    0.8300 C.3     1  UNL1       -0.0274
     12  C9         1.3180   -2.3150    1.2340 C.3     1  UNL1        0.0153
     13  N4         1.6280   -1.0940    0.4320 N.am    1  UNL1       -0.3006
     14  C10        2.9800   -0.7040    0.3820 C.2     1  UNL1        0.2187
     15  O1         3.8940   -1.2120    0.8680 O.2     1  UNL1       -0.2753
     16  C11        3.2400    0.5910   -0.4590 C.3     1  UNL1        0.0358
     17  C12        4.6880    0.5870   -0.7810 C.3     1  UNL1       -0.0419
     18  C13        5.1750    1.9970   -0.5560 C.3     1  UNL1       -0.0523
     19  C14        4.1840    2.6420    0.3440 C.3     1  UNL1       -0.0523
     20  C15        3.0360    1.7250    0.5150 C.3     1  UNL1       -0.0419
     21  C16        0.4000   -0.5780   -0.1170 C.3     1  UNL1        0.0230
     22  C17       -3.0260    0.1230    1.3440 C.ar    1  UNL1       -0.0356
     23  C18       -3.4810    1.1790    2.1270 C.ar    1  UNL1        0.0302
     24  N5        -4.2050    2.1030    1.4830 N.ar    1  UNL1       -0.2407
     25 H          -5.5158    2.9893   -1.3617 H       1  UNL1        0.1437
     26 H          -5.6791    3.7541    0.1535 H       1  UNL1        0.1437
     27 H          -4.2063    0.9209   -1.5942 H       1  UNL1        0.0658
     28 H          -4.8344   -1.6557   -1.5949 H       1  UNL1        0.0830
     29 H          -3.7084   -3.7430   -2.4280 H       1  UNL1        0.1882
     30 H          -0.1169   -1.8656   -1.3129 H       1  UNL1        0.0380
     31 H          -0.0344   -3.7440    0.4684 H       1  UNL1        0.0287
     32 H          -0.7381   -2.7220    1.6399 H       1  UNL1        0.0287
     33 H           2.0261   -3.0885    1.0215 H       1  UNL1        0.0465
     34 H           1.3691   -2.1163    2.2841 H       1  UNL1        0.0465
     35 H           2.6284    0.6618   -1.3341 H       1  UNL1        0.0394
     36 H           4.8401    0.3007   -1.8007 H       1  UNL1        0.0272
     37 H           5.2207   -0.1110   -0.1695 H       1  UNL1        0.0272
     38 H           5.2284    2.5233   -1.4861 H       1  UNL1        0.0265
     39 H           6.1547    2.0060   -0.1258 H       1  UNL1        0.0265
     40 H           3.8495    3.5619   -0.0882 H       1  UNL1        0.0265
     41 H           4.6320    2.8483    1.2935 H       1  UNL1        0.0265
     42 H           3.0089    1.3505    1.5170 H       1  UNL1        0.0272
     43 H           2.1098    2.2285    0.3318 H       1  UNL1        0.0272
     44 H          -0.0650    0.1081    0.5598 H       1  UNL1        0.0471
     45 H           0.5424   -0.0315   -1.0258 H       1  UNL1        0.0471
     46 H          -2.4721   -0.6119    1.8110 H       1  UNL1        0.0639
     47 H          -3.2745    1.2457    3.1359 H       1  UNL1        0.0830
@<TRIPOS>BOND
     1     1     2    1
     2     2     3   ar
     3     2    24   ar
     4     3     4   ar
     5     4     5    1
     6     4    22   ar
     7     5     6   ar
     8     5     9   ar
     9     6     7   ar
    10     7     8   ar
    11     8     9   ar
    12     9    10    1
    13    10    11    1
    14    10    21    1
    15    11    12    1
    16    12    13    1
    17    13    14   am
    18    13    21    1
    19    14    15    2
    20    14    16    1
    21    16    17    1
    22    16    20    1
    23    17    18    1
    24    18    19    1
    25    19    20    1
    26    22    23   ar
    27    23    24   ar
    28     1    25    1
    29     1    26    1
    30     3    27    1
    31     6    28    1
    32     7    29    1
    33    10    30    1
    34    11    31    1
    35    11    32    1
    36    12    33    1
    37    12    34    1
    38    16    35    1
    39    17    36    1
    40    17    37    1
    41    18    38    1
    42    18    39    1
    43    19    40    1
    44    19    41    1
    45    20    42    1
    46    20    43    1
    47    21    44    1
    48    21    45    1
    49    22    46    1
    50    23    47    1
@<TRIPOS>MOLECULE
../data/bude_mols_rdkit_confs2/molecule_6.pdb
 47 50 0 0 0
SMALL
GASTEIGER

@<TRIPOS>ATOM
      1  N1        -7.2190   -0.0570    1.4060 N.pl3   1  UNL1       -0.3431
      2  C1        -5.8890   -0.4760    1.1980 C.ar    1  UNL1        0.1167
      3  C2        -5.0810    0.0760    0.2240 C.ar    1  UNL1       -0.0143
      4  C3        -3.7640   -0.3470    0.0180 C.ar    1  UNL1       -0.0100
      5  C4        -3.0140    0.2970   -1.0400 C.ar    1  UNL1        0.0230
      6  C5        -3.4810    0.4500   -2.3640 C.ar    1  UNL1        0.0303
      7  N2        -2.5640    1.0980   -3.0850 N.ar    1  UNL1       -0.2839
      8  N3        -1.5580    1.3590   -2.3060 N.ar    1  UNL1       -0.1779
      9  C6        -1.7900    0.8880   -1.0530 C.ar    1  UNL1        0.0751
     10  C7        -0.7960    1.0250    0.0460 C.3     1  UNL1        0.0208
     11  C8         0.2170    2.0810   -0.2620 C.3     1  UNL1       -0.0274
     12  C9         1.5170    1.3860   -0.5440 C.3     1  UNL1        0.0153
     13  N4         1.3790    0.1120    0.1020 N.am    1  UNL1       -0.3006
     14  C10        2.4210   -0.7210    0.6300 C.2     1  UNL1        0.2187
     15  O1         2.0780   -1.8120    1.1630 O.2     1  UNL1       -0.2753
     16  C11        3.8070   -0.2740    0.5250 C.3     1  UNL1        0.0358
     17  C12        4.7800   -1.3040    1.0850 C.3     1  UNL1       -0.0419
     18  C13        6.0990   -0.7580    0.6110 C.3     1  UNL1       -0.0523
     19  C14        5.8230    0.0760   -0.6020 C.3     1  UNL1       -0.0523
     20  C15        4.3280   -0.1420   -0.8870 C.3     1  UNL1       -0.0419
     21  C16       -0.0100   -0.2440    0.1470 C.3     1  UNL1        0.0230
     22  C17       -3.3210   -1.3400    0.8360 C.ar    1  UNL1       -0.0356
     23  C18       -4.1510   -1.8990    1.8280 C.ar    1  UNL1        0.0302
     24  N5        -5.3970   -1.4550    1.9780 N.ar    1  UNL1       -0.2407
     25 H          -7.6028    0.6578    0.8484 H       1  UNL1        0.1437
     26 H          -7.7639   -0.4792    2.1089 H       1  UNL1        0.1437
     27 H          -5.4621    0.8268   -0.3727 H       1  UNL1        0.0658
     28 H          -4.3897    0.1132   -2.7186 H       1  UNL1        0.0830
     29 H          -2.6370    1.3358   -4.0375 H       1  UNL1        0.1882
     30 H          -1.3392    1.2627    0.9367 H       1  UNL1        0.0380
     31 H           0.3273    2.7376    0.5756 H       1  UNL1        0.0287
     32 H          -0.0899    2.6653   -1.1042 H       1  UNL1        0.0287
     33 H           2.3382    1.9342   -0.1317 H       1  UNL1        0.0465
     34 H           1.7164    1.2963   -1.5914 H       1  UNL1        0.0465
     35 H           3.7712    0.6617    1.0427 H       1  UNL1        0.0394
     36 H           4.5928   -2.2778    0.6830 H       1  UNL1        0.0272
     37 H           4.7166   -1.4332    2.1453 H       1  UNL1        0.0272
     38 H           6.7598   -1.5615    0.3608 H       1  UNL1        0.0265
     39 H           6.5649   -0.1729    1.3762 H       1  UNL1        0.0265
     40 H           6.4174   -0.2514   -1.4293 H       1  UNL1        0.0265
     41 H           6.0619    1.1078   -0.4493 H       1  UNL1        0.0265
     42 H           3.8943    0.6949   -1.3935 H       1  UNL1        0.0272
     43 H           4.1079   -0.9705   -1.5274 H       1  UNL1        0.0272
     44 H          -0.2496   -0.8897   -0.6719 H       1  UNL1        0.0471
     45 H          -0.2400   -0.7617    1.0547 H       1  UNL1        0.0471
     46 H          -2.3567   -1.6912    0.7276 H       1  UNL1        0.0639
     47 H          -3.7936   -2.6514    2.4373 H       1  UNL1        0.0830
@<TRIPOS>BOND
     1     1     2    1
     2     2     3   ar
     3     2    24   ar
     4     3     4   ar
     5     4     5    1
     6     4    22   ar
     7     5     6   ar
     8     5     9   ar
     9     6     7   ar
    10     7     8   ar
    11     8     9   ar
    12     9    10    1
    13    10    11    1
    14    10    21    1
    15    11    12    1
    16    12    13    1
    17    13    14   am
    18    13    21    1
    19    14    15    2
    20    14    16    1
    21    16    17    1
    22    16    20    1
    23    17    18    1
    24    18    19    1
    25    19    20    1
    26    22    23   ar
    27    23    24   ar
    28     1    25    1
    29     1    26    1
    30     3    27    1
    31     6    28    1
    32     7    29    1
    33    10    30    1
    34    11    31    1
    35    11    32    1
    36    12    33    1
    37    12    34    1
    38    16    35    1
    39    17    36    1
    40    17    37    1
    41    18    38    1
    42    18    39    1
    43    19    40    1
    44    19    41    1
    45    20    42    1
    46    20    43    1
    47    21    44    1
    48    21    45    1
    49    22    46    1
    50    23    47    1
@<TRIPOS>MOLECULE
../data/bude_mols_rdkit_confs2/molecule_6.pdb
 47 50 0 0 0
SMALL
GASTEIGER

@<TRIPOS>ATOM
      1  N1         5.8290    0.8870    3.2140 N.pl3   1  UNL1       -0.3431
      2  C1         4.9910    1.0180    2.0660 C.ar    1  UNL1        0.1167
      3  C2         4.4140   -0.0740    1.4480 C.ar    1  UNL1       -0.0143
      4  C3         3.5980    0.0250    0.3380 C.ar    1  UNL1       -0.0100
      5  C4         3.0520   -1.1580   -0.2840 C.ar    1  UNL1        0.0230
      6  C5         3.8320   -2.1590   -0.8900 C.ar    1  UNL1        0.0303
      7  N2         2.9600   -3.0560   -1.3590 N.ar    1  UNL1       -0.2839
      8  N3         1.7340   -2.6920   -1.0950 N.ar    1  UNL1       -0.1779
      9  C6         1.7500   -1.4960   -0.4150 C.ar    1  UNL1        0.0751
     10  C7         0.5240   -0.8610    0.0270 C.3     1  UNL1        0.0208
     11  C8        -0.6950   -1.7550   -0.1550 C.3     1  UNL1       -0.0274
     12  C9        -1.6930   -0.8600   -0.9100 C.3     1  UNL1        0.0153
     13  N4        -1.2910    0.4380   -0.4750 N.am    1  UNL1       -0.3006
     14  C10       -2.0940    1.5090   -0.0840 C.2     1  UNL1        0.2187
     15  O1        -1.4850    2.5920    0.2620 O.2     1  UNL1       -0.2753
     16  C11       -3.5900    1.5190   -0.0280 C.3     1  UNL1        0.0358
     17  C12       -4.0590    0.5850    1.0380 C.3     1  UNL1       -0.0419
     18  C13       -5.2300   -0.1610    0.5120 C.3     1  UNL1       -0.0523
     19  C14       -5.2870    0.0720   -0.9580 C.3     1  UNL1       -0.0523
     20  C15       -4.2070    1.0410   -1.3060 C.3     1  UNL1       -0.0419
     21  C16        0.1570    0.4530   -0.5130 C.3     1  UNL1        0.0230
     22  C17        3.3660    1.2690   -0.1530 C.ar    1  UNL1       -0.0356
     23  C18        3.9380    2.3640    0.4580 C.ar    1  UNL1        0.0302
     24  N5         4.7330    2.2300    1.5460 N.ar    1  UNL1       -0.2407
     25 H           6.0137   -0.0041    3.5895 H       1  UNL1        0.1437
     26 H           6.2223    1.6878    3.6303 H       1  UNL1        0.1437
     27 H           4.6021   -1.0119    1.8353 H       1  UNL1        0.0658
     28 H           4.8612   -2.1934   -0.9581 H       1  UNL1        0.0830
     29 H           3.2080   -3.8794   -1.8384 H       1  UNL1        0.1882
     30 H           0.7887   -0.6936    1.0501 H       1  UNL1        0.0380
     31 H          -1.0925   -2.0558    0.7918 H       1  UNL1        0.0287
     32 H          -0.4710   -2.6606   -0.6790 H       1  UNL1        0.0287
     33 H          -2.7024   -1.0729   -0.6259 H       1  UNL1        0.0465
     34 H          -1.6801   -0.9892   -1.9721 H       1  UNL1        0.0465
     35 H          -3.8806    2.5315    0.1601 H       1  UNL1        0.0394
     36 H          -4.3428    1.1399    1.9078 H       1  UNL1        0.0272
     37 H          -3.2769   -0.0935    1.3081 H       1  UNL1        0.0272
     38 H          -6.1273    0.1954    0.9733 H       1  UNL1        0.0265
     39 H          -5.1372   -1.2056    0.7243 H       1  UNL1        0.0265
     40 H          -6.2404    0.4772   -1.2260 H       1  UNL1        0.0265
     41 H          -5.1510   -0.8471   -1.4886 H       1  UNL1        0.0265
     42 H          -3.4665    0.5591   -1.9095 H       1  UNL1        0.0272
     43 H          -4.6085    1.8652   -1.8578 H       1  UNL1        0.0272
     44 H           0.5127    0.5680   -1.5156 H       1  UNL1        0.0471
     45 H           0.5814    1.2653    0.0392 H       1  UNL1        0.0471
     46 H           2.7632    1.3945   -0.9812 H       1  UNL1        0.0639
     47 H           3.7565    3.3063    0.0782 H       1  UNL1        0.0830
@<TRIPOS>BOND
     1     1     2    1
     2     2     3   ar
     3     2    24   ar
     4     3     4   ar
     5     4     5    1
     6     4    22   ar
     7     5     6   ar
     8     5     9   ar
     9     6     7   ar
    10     7     8   ar
    11     8     9   ar
    12     9    10    1
    13    10    11    1
    14    10    21    1
    15    11    12    1
    16    12    13    1
    17    13    14   am
    18    13    21    1
    19    14    15    2
    20    14    16    1
    21    16    17    1
    22    16    20    1
    23    17    18    1
    24    18    19    1
    25    19    20    1
    26    22    23   ar
    27    23    24   ar
    28     1    25    1
    29     1    26    1
    30     3    27    1
    31     6    28    1
    32     7    29    1
    33    10    30    1
    34    11    31    1
    35    11    32    1
    36    12    33    1
    37    12    34    1
    38    16    35    1
    39    17    36    1
    40    17    37    1
    41    18    38    1
    42    18    39    1
    43    19    40    1
    44    19    41    1
    45    20    42    1
    46    20    43    1
    47    21    44    1
    48    21    45    1
    49    22    46    1
    50    23    47    1
@<TRIPOS>MOLECULE
../data/bude_mols_rdkit_confs2/molecule_6.pdb
 47 50 0 0 0
SMALL
GASTEIGER

@<TRIPOS>ATOM
      1  N1         6.5250    1.7210   -0.4440 N.pl3   1  UNL1       -0.3431
      2  C1         5.7470    0.5250   -0.4180 C.ar    1  UNL1        0.1167
      3  C2         4.6130    0.4150    0.3480 C.ar    1  UNL1       -0.0143
      4  C3         3.8080   -0.7380    0.3750 C.ar    1  UNL1       -0.0100
      5  C4         2.6300   -0.7450    1.2070 C.ar    1  UNL1        0.0230
      6  C5         2.6750   -0.7970    2.5980 C.ar    1  UNL1        0.0303
      7  N2         1.4030   -0.6150    3.0160 N.ar    1  UNL1       -0.2839
      8  N3         0.6170   -0.4620    1.9440 N.ar    1  UNL1       -0.1779
      9  C6         1.3260   -0.5380    0.8130 C.ar    1  UNL1        0.0751
     10  C7         0.8480   -0.5830   -0.6010 C.3     1  UNL1        0.0208
     11  C8         0.7810    0.8310   -1.1340 C.3     1  UNL1       -0.0274
     12  C9        -0.4040    0.7240   -2.0710 C.3     1  UNL1        0.0153
     13  N4        -1.3910    0.2060   -1.0580 N.am    1  UNL1       -0.3006
     14  C10       -2.6180    0.8380   -0.8570 C.2     1  UNL1        0.2187
     15  O1        -2.8540    1.8860   -1.5770 O.2     1  UNL1       -0.2753
     16  C11       -3.6980    0.4790    0.0680 C.3     1  UNL1        0.0358
     17  C12       -4.3860   -0.7950   -0.2950 C.3     1  UNL1       -0.0419
     18  C13       -5.7780   -0.6610    0.2570 C.3     1  UNL1       -0.0523
     19  C14       -6.0960    0.7910    0.1750 C.3     1  UNL1       -0.0523
     20  C15       -4.7950    1.5220    0.0730 C.3     1  UNL1       -0.0419
     21  C16       -0.6880   -0.9110   -0.4930 C.3     1  UNL1        0.0230
     22  C17        4.2230   -1.7520   -0.4060 C.ar    1  UNL1       -0.0356
     23  C18        5.3810   -1.6610   -1.1910 C.ar    1  UNL1        0.0302
     24  N5         6.1190   -0.5120   -1.1770 N.ar    1  UNL1       -0.2407
     25 H           6.2621    2.4914    0.1098 H       1  UNL1        0.1437
     26 H           7.3246    1.7758   -1.0157 H       1  UNL1        0.1437
     27 H           4.3373    1.2189    0.9335 H       1  UNL1        0.0658
     28 H           3.5086   -0.9443    3.1883 H       1  UNL1        0.0830
     29 H           1.1041   -0.5978    3.9539 H       1  UNL1        0.1882
     30 H           1.4590   -1.2436   -1.1800 H       1  UNL1        0.0380
     31 H           1.6750    1.0972   -1.6582 H       1  UNL1        0.0287
     32 H           0.6840    1.5847   -0.3807 H       1  UNL1        0.0287
     33 H          -0.2342    0.0313   -2.8687 H       1  UNL1        0.0465
     34 H          -0.6802    1.6132   -2.5982 H       1  UNL1        0.0465
     35 H          -3.2090    0.3915    1.0157 H       1  UNL1        0.0394
     36 H          -3.8857   -1.6311    0.1472 H       1  UNL1        0.0272
     37 H          -4.3887   -0.9615   -1.3520 H       1  UNL1        0.0272
     38 H          -5.8119   -0.9951    1.2729 H       1  UNL1        0.0265
     39 H          -6.4818   -1.2545   -0.2882 H       1  UNL1        0.0265
     40 H          -6.6233    1.1012    1.0528 H       1  UNL1        0.0265
     41 H          -6.7159    0.9975   -0.6724 H       1  UNL1        0.0265
     42 H          -4.7640    2.0917   -0.8322 H       1  UNL1        0.0272
     43 H          -4.6732    2.1991    0.8925 H       1  UNL1        0.0272
     44 H          -0.9658   -1.0409    0.5321 H       1  UNL1        0.0471
     45 H          -0.9249   -1.8162   -1.0120 H       1  UNL1        0.0471
     46 H           3.6716   -2.6241   -0.4279 H       1  UNL1        0.0639
     47 H           5.6743   -2.4585   -1.7766 H       1  UNL1        0.0830
@<TRIPOS>BOND
     1     1     2    1
     2     2     3   ar
     3     2    24   ar
     4     3     4   ar
     5     4     5    1
     6     4    22   ar
     7     5     6   ar
     8     5     9   ar
     9     6     7   ar
    10     7     8   ar
    11     8     9   ar
    12     9    10    1
    13    10    11    1
    14    10    21    1
    15    11    12    1
    16    12    13    1
    17    13    14   am
    18    13    21    1
    19    14    15    2
    20    14    16    1
    21    16    17    1
    22    16    20    1
    23    17    18    1
    24    18    19    1
    25    19    20    1
    26    22    23   ar
    27    23    24   ar
    28     1    25    1
    29     1    26    1
    30     3    27    1
    31     6    28    1
    32     7    29    1
    33    10    30    1
    34    11    31    1
    35    11    32    1
    36    12    33    1
    37    12    34    1
    38    16    35    1
    39    17    36    1
    40    17    37    1
    41    18    38    1
    42    18    39    1
    43    19    40    1
    44    19    41    1
    45    20    42    1
    46    20    43    1
    47    21    44    1
    48    21    45    1
    49    22    46    1
    50    23    47    1
@<TRIPOS>MOLECULE
../data/bude_mols_rdkit_confs2/molecule_6.pdb
 47 50 0 0 0
SMALL
GASTEIGER

@<TRIPOS>ATOM
      1  N1         4.5820    0.5160    3.4700 N.pl3   1  UNL1       -0.3431
      2  C1         4.3540   -0.0180    2.1810 C.ar    1  UNL1        0.1167
      3  C2         3.6210    0.6270    1.2040 C.ar    1  UNL1       -0.0143
      4  C3         3.4060    0.0960   -0.0550 C.ar    1  UNL1       -0.0100
      5  C4         2.6310    0.8580   -1.0120 C.ar    1  UNL1        0.0230
      6  C5         2.8490    2.2120   -1.2880 C.ar    1  UNL1        0.0303
      7  N2         1.9670    2.5710   -2.2080 N.ar    1  UNL1       -0.2839
      8  N3         1.2290    1.5410   -2.5130 N.ar    1  UNL1       -0.1779
      9  C6         1.5980    0.4480   -1.7980 C.ar    1  UNL1        0.0751
     10  C7         0.9730   -0.8750   -1.8970 C.3     1  UNL1        0.0208
     11  C8        -0.2360   -0.8750   -2.8200 C.3     1  UNL1       -0.0274
     12  C9        -1.2580   -0.1450   -1.9750 C.3     1  UNL1        0.0153
     13  N4        -1.0820   -0.8280   -0.7120 N.am    1  UNL1       -0.3006
     14  C10       -2.1140   -1.0570    0.2270 C.2     1  UNL1        0.2187
     15  O1        -1.8570   -1.6640    1.3000 O.2     1  UNL1       -0.2753
     16  C11       -3.5120   -0.5950   -0.0240 C.3     1  UNL1        0.0358
     17  C12       -3.6520    0.8820   -0.1250 C.3     1  UNL1       -0.0419
     18  C13       -4.2480    1.3520    1.1570 C.3     1  UNL1       -0.0523
     19  C14       -5.1500    0.1950    1.5610 C.3     1  UNL1       -0.0523
     20  C15       -4.4100   -1.0460    1.0930 C.3     1  UNL1       -0.0419
     21  C16        0.3060   -1.2300   -0.5840 C.3     1  UNL1        0.0230
     22  C17        3.9590   -1.1260   -0.3090 C.ar    1  UNL1       -0.0356
     23  C18        4.6910   -1.7580    0.6850 C.ar    1  UNL1        0.0302
     24  N5         4.8760   -1.2060    1.8970 N.ar    1  UNL1       -0.2407
     25 H           4.2089    1.3943    3.7120 H       1  UNL1        0.1437
     26 H           5.1139    0.0096    4.1256 H       1  UNL1        0.1437
     27 H           3.2141    1.5496    1.4240 H       1  UNL1        0.0658
     28 H           3.5637    2.8178   -0.8554 H       1  UNL1        0.0830
     29 H           1.8824    3.4707   -2.5986 H       1  UNL1        0.1882
     30 H           1.7607   -1.5252   -2.2158 H       1  UNL1        0.0380
     31 H          -0.5552   -1.8708   -3.0466 H       1  UNL1        0.0287
     32 H          -0.0571   -0.4259   -3.7746 H       1  UNL1        0.0287
     33 H          -2.2496   -0.2689   -2.3576 H       1  UNL1        0.0465
     34 H          -1.1292    0.9164   -1.9327 H       1  UNL1        0.0465
     35 H          -3.7846   -1.0234   -0.9658 H       1  UNL1        0.0394
     36 H          -4.2936    1.1352   -0.9431 H       1  UNL1        0.0272
     37 H          -2.7026    1.3446   -0.2968 H       1  UNL1        0.0272
     38 H          -4.8142    2.2483    1.0119 H       1  UNL1        0.0265
     39 H          -3.5154    1.5937    1.8985 H       1  UNL1        0.0265
     40 H          -6.1022    0.2717    1.0790 H       1  UNL1        0.0265
     41 H          -5.3452    0.1796    2.6129 H       1  UNL1        0.0265
     42 H          -3.8306   -1.4574    1.8930 H       1  UNL1        0.0272
     43 H          -5.0877   -1.8077    0.7683 H       1  UNL1        0.0272
     44 H           0.7716   -0.7033    0.2226 H       1  UNL1        0.0471
     45 H           0.3907   -2.2759   -0.3745 H       1  UNL1        0.0471
     46 H           3.8338   -1.5743   -1.2301 H       1  UNL1        0.0639
     47 H           5.1071   -2.6816    0.4881 H       1  UNL1        0.0830
@<TRIPOS>BOND
     1     1     2    1
     2     2     3   ar
     3     2    24   ar
     4     3     4   ar
     5     4     5    1
     6     4    22   ar
     7     5     6   ar
     8     5     9   ar
     9     6     7   ar
    10     7     8   ar
    11     8     9   ar
    12     9    10    1
    13    10    11    1
    14    10    21    1
    15    11    12    1
    16    12    13    1
    17    13    14   am
    18    13    21    1
    19    14    15    2
    20    14    16    1
    21    16    17    1
    22    16    20    1
    23    17    18    1
    24    18    19    1
    25    19    20    1
    26    22    23   ar
    27    23    24   ar
    28     1    25    1
    29     1    26    1
    30     3    27    1
    31     6    28    1
    32     7    29    1
    33    10    30    1
    34    11    31    1
    35    11    32    1
    36    12    33    1
    37    12    34    1
    38    16    35    1
    39    17    36    1
    40    17    37    1
    41    18    38    1
    42    18    39    1
    43    19    40    1
    44    19    41    1
    45    20    42    1
    46    20    43    1
    47    21    44    1
    48    21    45    1
    49    22    46    1
    50    23    47    1
@<TRIPOS>MOLECULE
../data/bude_mols_rdkit_confs2/molecule_6.pdb
 47 50 0 0 0
SMALL
GASTEIGER

@<TRIPOS>ATOM
      1  N1         4.5160    2.8640   -1.7940 N.pl3   1  UNL1       -0.3431
      2  C1         4.7310    1.5650   -1.2710 C.ar    1  UNL1        0.1167
      3  C2         3.6360    0.8110   -0.9170 C.ar    1  UNL1       -0.0143
      4  C3         3.7190   -0.4490   -0.4000 C.ar    1  UNL1       -0.0100
      5  C4         2.6650   -1.3220    0.0130 C.ar    1  UNL1        0.0230
      6  C5         2.6490   -2.6840   -0.3670 C.ar    1  UNL1        0.0303
      7  N2         1.5770   -3.2950    0.1590 N.ar    1  UNL1       -0.2839
      8  N3         0.9280   -2.3910    0.8420 N.ar    1  UNL1       -0.1779
      9  C6         1.5590   -1.1800    0.7760 C.ar    1  UNL1        0.0751
     10  C7         1.1110    0.0780    1.4050 C.3     1  UNL1        0.0208
     11  C8         0.0580   -0.1570    2.4710 C.3     1  UNL1       -0.0274
     12  C9        -1.2250   -0.3740    1.7130 C.3     1  UNL1        0.0153
     13  N4        -1.1120    0.5340    0.6190 N.am    1  UNL1       -0.3006
     14  C10       -2.1830    1.0930   -0.1090 C.2     1  UNL1        0.2187
     15  O1        -1.9530    1.8890   -1.0670 O.2     1  UNL1       -0.2753
     16  C11       -3.5700    0.7310    0.2710 C.3     1  UNL1        0.0358
     17  C12       -4.5830    1.4860   -0.5700 C.3     1  UNL1       -0.0419
     18  C13       -5.6960    0.5310   -0.8630 C.3     1  UNL1       -0.0523
     19  C14       -5.3250   -0.7490   -0.1820 C.3     1  UNL1       -0.0523
     20  C15       -3.8150   -0.7310   -0.0470 C.3     1  UNL1       -0.0419
     21  C16        0.2720    0.7980    0.3740 C.3     1  UNL1        0.0230
     22  C17        5.0510   -0.9060   -0.2650 C.ar    1  UNL1       -0.0356
     23  C18        6.1320   -0.1340   -0.6270 C.ar    1  UNL1        0.0302
     24  N5         5.9560    1.0850   -1.1220 N.ar    1  UNL1       -0.2407
     25 H           3.5991    3.2069   -1.8988 H       1  UNL1        0.1437
     26 H           5.2835    3.4238   -2.0526 H       1  UNL1        0.1437
     27 H           2.6986    1.2217   -1.0500 H       1  UNL1        0.0658
     28 H           3.3580   -3.1408   -0.9617 H       1  UNL1        0.0830
     29 H           1.3279   -4.2413    0.0511 H       1  UNL1        0.1882
     30 H           1.9850    0.5686    1.7795 H       1  UNL1        0.0380
     31 H          -0.0241    0.6955    3.1124 H       1  UNL1        0.0287
     32 H           0.2999   -0.9903    3.0971 H       1  UNL1        0.0287
     33 H          -2.0742   -0.1399    2.3203 H       1  UNL1        0.0465
     34 H          -1.3646   -1.3890    1.4044 H       1  UNL1        0.0465
     35 H          -3.6783    0.9581    1.3110 H       1  UNL1        0.0394
     36 H          -4.1316    1.8171   -1.4819 H       1  UNL1        0.0272
     37 H          -4.9440    2.3506   -0.0533 H       1  UNL1        0.0272
     38 H          -5.7881    0.3786   -1.9181 H       1  UNL1        0.0265
     39 H          -6.6366    0.9039   -0.5151 H       1  UNL1        0.0265
     40 H          -5.6352   -1.5866   -0.7712 H       1  UNL1        0.0265
     41 H          -5.8018   -0.8368    0.7719 H       1  UNL1        0.0265
     42 H          -3.4840   -1.3667    0.7475 H       1  UNL1        0.0272
     43 H          -3.2910   -1.0887   -0.9086 H       1  UNL1        0.0272
     44 H           0.5337    0.4519   -0.6041 H       1  UNL1        0.0471
     45 H           0.4519    1.8508    0.4390 H       1  UNL1        0.0471
     46 H           5.2180   -1.8498    0.1177 H       1  UNL1        0.0639
     47 H           7.0876   -0.5064   -0.5125 H       1  UNL1        0.0830
@<TRIPOS>BOND
     1     1     2    1
     2     2     3   ar
     3     2    24   ar
     4     3     4   ar
     5     4     5    1
     6     4    22   ar
     7     5     6   ar
     8     5     9   ar
     9     6     7   ar
    10     7     8   ar
    11     8     9   ar
    12     9    10    1
    13    10    11    1
    14    10    21    1
    15    11    12    1
    16    12    13    1
    17    13    14   am
    18    13    21    1
    19    14    15    2
    20    14    16    1
    21    16    17    1
    22    16    20    1
    23    17    18    1
    24    18    19    1
    25    19    20    1
    26    22    23   ar
    27    23    24   ar
    28     1    25    1
    29     1    26    1
    30     3    27    1
    31     6    28    1
    32     7    29    1
    33    10    30    1
    34    11    31    1
    35    11    32    1
    36    12    33    1
    37    12    34    1
    38    16    35    1
    39    17    36    1
    40    17    37    1
    41    18    38    1
    42    18    39    1
    43    19    40    1
    44    19    41    1
    45    20    42    1
    46    20    43    1
    47    21    44    1
    48    21    45    1
    49    22    46    1
    50    23    47    1
@<TRIPOS>MOLECULE
../data/bude_mols_rdkit_confs2/molecule_6.pdb
 47 50 0 0 0
SMALL
GASTEIGER

@<TRIPOS>ATOM
      1  N1         7.7320   -0.4420    0.0580 N.pl3   1  UNL1       -0.3431
      2  C1         6.3670   -0.8420   -0.0400 C.ar    1  UNL1        0.1167
      3  C2         5.3670    0.0940    0.0360 C.ar    1  UNL1       -0.0143
      4  C3         3.9960   -0.2320   -0.0840 C.ar    1  UNL1       -0.0100
      5  C4         3.0360    0.8610   -0.1310 C.ar    1  UNL1        0.0230
      6  C5         3.3780    2.2250   -0.1520 C.ar    1  UNL1        0.0303
      7  N2         2.2960    2.9620   -0.4320 N.ar    1  UNL1       -0.2839
      8  N3         1.2680    2.1340   -0.5930 N.ar    1  UNL1       -0.1779
      9  C6         1.7220    0.8430   -0.4000 C.ar    1  UNL1        0.0751
     10  C7         0.7690   -0.2870   -0.2420 C.3     1  UNL1        0.0208
     11  C8        -0.1560   -0.3810   -1.4530 C.3     1  UNL1       -0.0274
     12  C9        -1.4380   -0.9010   -0.8030 C.3     1  UNL1        0.0153
     13  N4        -1.5740    0.1150    0.2130 N.am    1  UNL1       -0.3006
     14  C10       -2.7590    0.7820    0.5520 C.2     1  UNL1        0.2187
     15  O1        -2.6600    1.6750    1.4980 O.2     1  UNL1       -0.2753
     16  C11       -4.1100    0.6020   -0.0240 C.3     1  UNL1        0.0358
     17  C12       -4.4550   -0.8050   -0.3360 C.3     1  UNL1       -0.0419
     18  C13       -5.7780   -1.1080    0.3690 C.3     1  UNL1       -0.0523
     19  C14       -6.3230    0.2070    0.8190 C.3     1  UNL1       -0.0523
     20  C15       -5.1590    1.1150    0.9920 C.3     1  UNL1       -0.0419
     21  C16       -0.2830    0.2840    0.7890 C.3     1  UNL1        0.0230
     22  C17        3.7030   -1.5490   -0.2810 C.ar    1  UNL1       -0.0356
     23  C18        4.7440   -2.4920   -0.3530 C.ar    1  UNL1        0.0302
     24  N5         5.9930   -2.0990   -0.2310 N.ar    1  UNL1       -0.2407
     25 H           7.9583    0.5055    0.2003 H       1  UNL1        0.1437
     26 H           8.4482   -1.1133   -0.0166 H       1  UNL1        0.1437
     27 H           5.6270    1.0811    0.1877 H       1  UNL1        0.0658
     28 H           4.3228    2.6018    0.0225 H       1  UNL1        0.0830
     29 H           2.2666    3.9433   -0.5057 H       1  UNL1        0.1882
     30 H           1.3055   -1.1886   -0.0320 H       1  UNL1        0.0380
     31 H           0.2207   -1.0672   -2.1825 H       1  UNL1        0.0287
     32 H          -0.2750    0.5375   -1.9888 H       1  UNL1        0.0287
     33 H          -1.3131   -1.8780   -0.3851 H       1  UNL1        0.0465
     34 H          -2.2768   -1.0286   -1.4549 H       1  UNL1        0.0465
     35 H          -4.1128    1.1487   -0.9438 H       1  UNL1        0.0394
     36 H          -3.6887   -1.4596    0.0235 H       1  UNL1        0.0272
     37 H          -4.5430   -0.9513   -1.3923 H       1  UNL1        0.0272
     38 H          -5.6115   -1.7477    1.2104 H       1  UNL1        0.0265
     39 H          -6.4612   -1.6094   -0.2843 H       1  UNL1        0.0265
     40 H          -6.8427    0.0926    1.7473 H       1  UNL1        0.0265
     41 H          -7.0159    0.6011    0.1052 H       1  UNL1        0.0265
     42 H          -5.4329    2.1262    0.7742 H       1  UNL1        0.0272
     43 H          -4.7875    1.1122    1.9954 H       1  UNL1        0.0272
     44 H          -0.0946    1.3220    0.9676 H       1  UNL1        0.0471
     45 H          -0.2149   -0.2309    1.7245 H       1  UNL1        0.0471
     46 H           2.7214   -1.8526   -0.3769 H       1  UNL1        0.0639
     47 H           4.5281   -3.4902   -0.5013 H       1  UNL1        0.0830
@<TRIPOS>BOND
     1     1     2    1
     2     2     3   ar
     3     2    24   ar
     4     3     4   ar
     5     4     5    1
     6     4    22   ar
     7     5     6   ar
     8     5     9   ar
     9     6     7   ar
    10     7     8   ar
    11     8     9   ar
    12     9    10    1
    13    10    11    1
    14    10    21    1
    15    11    12    1
    16    12    13    1
    17    13    14   am
    18    13    21    1
    19    14    15    2
    20    14    16    1
    21    16    17    1
    22    16    20    1
    23    17    18    1
    24    18    19    1
    25    19    20    1
    26    22    23   ar
    27    23    24   ar
    28     1    25    1
    29     1    26    1
    30     3    27    1
    31     6    28    1
    32     7    29    1
    33    10    30    1
    34    11    31    1
    35    11    32    1
    36    12    33    1
    37    12    34    1
    38    16    35    1
    39    17    36    1
    40    17    37    1
    41    18    38    1
    42    18    39    1
    43    19    40    1
    44    19    41    1
    45    20    42    1
    46    20    43    1
    47    21    44    1
    48    21    45    1
    49    22    46    1
    50    23    47    1
@<TRIPOS>MOLECULE
../data/bude_mols_rdkit_confs2/molecule_6.pdb
 47 50 0 0 0
SMALL
GASTEIGER

@<TRIPOS>ATOM
      1  N1         7.1170    0.7310   -0.5510 N.pl3   1  UNL1       -0.3431
      2  C1         5.9350   -0.0480   -0.7770 C.ar    1  UNL1        0.1167
      3  C2         4.9040    0.0030    0.0920 C.ar    1  UNL1       -0.0143
      4  C3         3.6990   -0.7300   -0.1090 C.ar    1  UNL1       -0.0100
      5  C4         2.7040   -0.5190    0.9320 C.ar    1  UNL1        0.0230
      6  C5         2.9630   -0.6940    2.3070 C.ar    1  UNL1        0.0303
      7  N2         1.8540   -0.2960    2.9380 N.ar    1  UNL1       -0.2839
      8  N3         0.9680    0.0980    2.0600 N.ar    1  UNL1       -0.1779
      9  C6         1.4220   -0.0100    0.7770 C.ar    1  UNL1        0.0751
     10  C7         0.6560    0.1840   -0.4990 C.3     1  UNL1        0.0208
     11  C8         0.3350    1.6800   -0.5900 C.3     1  UNL1       -0.0274
     12  C9        -0.7040    1.8570    0.4690 C.3     1  UNL1        0.0153
     13  N4        -1.6440    0.8040   -0.1060 N.am    1  UNL1       -0.3006
     14  C10       -2.9510    1.1690   -0.2960 C.2     1  UNL1        0.2187
     15  O1        -3.2280    2.3930    0.1450 O.2     1  UNL1       -0.2753
     16  C11       -4.1310    0.5350   -0.8800 C.3     1  UNL1        0.0358
     17  C12       -4.2380   -0.9320   -0.9520 C.3     1  UNL1       -0.0419
     18  C13       -4.8200   -1.3870    0.3370 C.3     1  UNL1       -0.0523
     19  C14       -5.5760   -0.2050    0.8920 C.3     1  UNL1       -0.0523
     20  C15       -5.3580    0.9400   -0.0300 C.3     1  UNL1       -0.0419
     21  C16       -0.7850   -0.3250   -0.2620 C.3     1  UNL1        0.0230
     22  C17        3.6390   -1.4880   -1.2200 C.ar    1  UNL1       -0.0356
     23  C18        4.7030   -1.5430   -2.1120 C.ar    1  UNL1        0.0302
     24  N5         5.8280   -0.8350   -1.8880 N.ar    1  UNL1       -0.2407
     25 H           7.1879    1.2963    0.2519 H       1  UNL1        0.1437
     26 H           7.8578    0.7007   -1.1987 H       1  UNL1        0.1437
     27 H           4.9915    0.5946    0.9330 H       1  UNL1        0.0658
     28 H           3.8291   -1.0546    2.7369 H       1  UNL1        0.0830
     29 H           1.7239   -0.2989    3.9139 H       1  UNL1        0.1882
     30 H           1.1969   -0.2599   -1.3085 H       1  UNL1        0.0380
     31 H          -0.0505    1.9340   -1.5553 H       1  UNL1        0.0287
     32 H           1.1911    2.3074   -0.4545 H       1  UNL1        0.0287
     33 H          -1.1298    2.8386    0.4784 H       1  UNL1        0.0465
     34 H          -0.4013    1.7546    1.4902 H       1  UNL1        0.0465
     35 H          -4.0652    0.8731   -1.8931 H       1  UNL1        0.0394
     36 H          -3.2695   -1.3650   -1.0915 H       1  UNL1        0.0272
     37 H          -4.8520   -1.2309   -1.7757 H       1  UNL1        0.0272
     38 H          -4.0438   -1.6821    1.0118 H       1  UNL1        0.0265
     39 H          -5.4606   -2.2332    0.2009 H       1  UNL1        0.0265
     40 H          -5.2096    0.0372    1.8677 H       1  UNL1        0.0265
     41 H          -6.6190   -0.4298    0.9724 H       1  UNL1        0.0265
     42 H          -6.2148    1.0907   -0.6529 H       1  UNL1        0.0272
     43 H          -5.1993    1.8579    0.4965 H       1  UNL1        0.0272
     44 H          -0.8146   -0.9260    0.6227 H       1  UNL1        0.0471
     45 H          -1.1058   -0.9178   -1.0930 H       1  UNL1        0.0471
     46 H           2.7874   -2.0381   -1.4126 H       1  UNL1        0.0639
     47 H           4.6311   -2.1328   -2.9558 H       1  UNL1        0.0830
@<TRIPOS>BOND
     1     1     2    1
     2     2     3   ar
     3     2    24   ar
     4     3     4   ar
     5     4     5    1
     6     4    22   ar
     7     5     6   ar
     8     5     9   ar
     9     6     7   ar
    10     7     8   ar
    11     8     9   ar
    12     9    10    1
    13    10    11    1
    14    10    21    1
    15    11    12    1
    16    12    13    1
    17    13    14   am
    18    13    21    1
    19    14    15    2
    20    14    16    1
    21    16    17    1
    22    16    20    1
    23    17    18    1
    24    18    19    1
    25    19    20    1
    26    22    23   ar
    27    23    24   ar
    28     1    25    1
    29     1    26    1
    30     3    27    1
    31     6    28    1
    32     7    29    1
    33    10    30    1
    34    11    31    1
    35    11    32    1
    36    12    33    1
    37    12    34    1
    38    16    35    1
    39    17    36    1
    40    17    37    1
    41    18    38    1
    42    18    39    1
    43    19    40    1
    44    19    41    1
    45    20    42    1
    46    20    43    1
    47    21    44    1
    48    21    45    1
    49    22    46    1
    50    23    47    1
@<TRIPOS>MOLECULE
../data/bude_mols_rdkit_confs2/molecule_6.pdb
 47 50 0 0 0
SMALL
GASTEIGER

@<TRIPOS>ATOM
      1  N1         5.9640    2.0380   -0.6650 N.pl3   1  UNL1       -0.3431
      2  C1         5.3430    0.7590   -0.7690 C.ar    1  UNL1        0.1167
      3  C2         4.3670    0.3410    0.0950 C.ar    1  UNL1       -0.0143
      4  C3         3.7480   -0.9120    0.0130 C.ar    1  UNL1       -0.0100
      5  C4         2.7090   -1.3000    0.9500 C.ar    1  UNL1        0.0230
      6  C5         2.7240   -2.4080    1.7960 C.ar    1  UNL1        0.0303
      7  N2         1.6120   -2.3940    2.5520 N.ar    1  UNL1       -0.2839
      8  N3         0.8900   -1.3340    2.2300 N.ar    1  UNL1       -0.1779
      9  C6         1.5420   -0.6400    1.2420 C.ar    1  UNL1        0.0751
     10  C7         1.0250    0.5890    0.5710 C.3     1  UNL1        0.0208
     11  C8        -0.0340    1.2600    1.3880 C.3     1  UNL1       -0.0274
     12  C9        -1.2730    0.4720    1.0750 C.3     1  UNL1        0.0153
     13  N4        -1.1590    0.1960   -0.3260 N.am    1  UNL1       -0.3006
     14  C10       -2.2200    0.0420   -1.2290 C.2     1  UNL1        0.2187
     15  O1        -1.8550   -0.2200   -2.4430 O.2     1  UNL1       -0.2753
     16  C11       -3.6510    0.1280   -1.0340 C.3     1  UNL1        0.0358
     17  C12       -4.2690   -0.5860    0.1040 C.3     1  UNL1       -0.0419
     18  C13       -5.7400   -0.1440   -0.0300 C.3     1  UNL1       -0.0523
     19  C14       -5.6960    1.2130   -0.6940 C.3     1  UNL1       -0.0523
     20  C15       -4.2270    1.5150   -0.9530 C.3     1  UNL1       -0.0419
     21  C16        0.2460    0.1050   -0.6370 C.3     1  UNL1        0.0230
     22  C17        4.1830   -1.7270   -1.0130 C.ar    1  UNL1       -0.0356
     23  C18        5.1800   -1.3050   -1.9000 C.ar    1  UNL1        0.0302
     24  N5         5.7300   -0.0780   -1.7540 N.ar    1  UNL1       -0.2407
     25 H           5.6929    2.6603    0.0481 H       1  UNL1        0.1437
     26 H           6.6639    2.2990   -1.3063 H       1  UNL1        0.1437
     27 H           4.0718    0.9836    0.8467 H       1  UNL1        0.0658
     28 H           3.4675   -3.1226    1.8356 H       1  UNL1        0.0830
     29 H           1.3743   -3.0634    3.2337 H       1  UNL1        0.1882
     30 H           1.8503    1.2437    0.3833 H       1  UNL1        0.0380
     31 H          -0.1488    2.2836    1.0983 H       1  UNL1        0.0287
     32 H           0.1952    1.2769    2.4330 H       1  UNL1        0.0287
     33 H          -2.1520    1.0468    1.2798 H       1  UNL1        0.0465
     34 H          -1.3582   -0.4161    1.6656 H       1  UNL1        0.0465
     35 H          -3.9000   -0.3747   -1.9452 H       1  UNL1        0.0394
     36 H          -3.8491   -0.2741    1.0375 H       1  UNL1        0.0272
     37 H          -4.1253   -1.6462    0.0881 H       1  UNL1        0.0272
     38 H          -6.1985   -0.0736    0.9342 H       1  UNL1        0.0265
     39 H          -6.3146   -0.8452   -0.5984 H       1  UNL1        0.0265
     40 H          -6.1185    1.9548   -0.0490 H       1  UNL1        0.0265
     41 H          -6.2603    1.2194   -1.6031 H       1  UNL1        0.0265
     42 H          -4.0927    2.0491   -1.8704 H       1  UNL1        0.0272
     43 H          -3.7701    2.1367   -0.2117 H       1  UNL1        0.0272
     44 H           0.5051   -0.9104   -0.8533 H       1  UNL1        0.0471
     45 H           0.4771    0.7039   -1.4930 H       1  UNL1        0.0471
     46 H           3.7657   -2.6638   -1.1279 H       1  UNL1        0.0639
     47 H           5.4939   -1.9268   -2.6615 H       1  UNL1        0.0830
@<TRIPOS>BOND
     1     1     2    1
     2     2     3   ar
     3     2    24   ar
     4     3     4   ar
     5     4     5    1
     6     4    22   ar
     7     5     6   ar
     8     5     9   ar
     9     6     7   ar
    10     7     8   ar
    11     8     9   ar
    12     9    10    1
    13    10    11    1
    14    10    21    1
    15    11    12    1
    16    12    13    1
    17    13    14   am
    18    13    21    1
    19    14    15    2
    20    14    16    1
    21    16    17    1
    22    16    20    1
    23    17    18    1
    24    18    19    1
    25    19    20    1
    26    22    23   ar
    27    23    24   ar
    28     1    25    1
    29     1    26    1
    30     3    27    1
    31     6    28    1
    32     7    29    1
    33    10    30    1
    34    11    31    1
    35    11    32    1
    36    12    33    1
    37    12    34    1
    38    16    35    1
    39    17    36    1
    40    17    37    1
    41    18    38    1
    42    18    39    1
    43    19    40    1
    44    19    41    1
    45    20    42    1
    46    20    43    1
    47    21    44    1
    48    21    45    1
    49    22    46    1
    50    23    47    1
@<TRIPOS>MOLECULE
../data/bude_mols_rdkit_confs2/molecule_6.pdb
 47 50 0 0 0
SMALL
GASTEIGER

@<TRIPOS>ATOM
      1  N1        -6.1850    0.9280   -2.1240 N.pl3   1  UNL1       -0.3431
      2  C1        -5.5190    0.4120   -0.9860 C.ar    1  UNL1        0.1167
      3  C2        -4.4300    1.0270   -0.3650 C.ar    1  UNL1       -0.0143
      4  C3        -3.8410    0.4920    0.7260 C.ar    1  UNL1       -0.0100
      5  C4        -2.6910    0.9720    1.4640 C.ar    1  UNL1        0.0230
      6  C5        -2.6860    1.5740    2.7010 C.ar    1  UNL1        0.0303
      7  N2        -1.4390    1.7000    3.0890 N.ar    1  UNL1       -0.2839
      8  N3        -0.6470    1.2150    2.1690 N.ar    1  UNL1       -0.1779
      9  C6        -1.3720    0.7490    1.1230 C.ar    1  UNL1        0.0751
     10  C7        -0.8180    0.3250   -0.1620 C.3     1  UNL1        0.0208
     11  C8        -0.9120   -1.1690   -0.4620 C.3     1  UNL1       -0.0274
     12  C9         0.0720   -1.0790   -1.6880 C.3     1  UNL1        0.0153
     13  N4         1.2510   -0.6190   -0.8830 N.am    1  UNL1       -0.3006
     14  C10        2.5490   -1.0970   -1.0400 C.2     1  UNL1        0.2187
     15  O1         2.7100   -1.9530   -2.0090 O.2     1  UNL1       -0.2753
     16  C11        3.7730   -0.8100   -0.3000 C.3     1  UNL1        0.0358
     17  C12        4.9990   -1.5300   -0.8470 C.3     1  UNL1       -0.0419
     18  C13        6.1700   -0.8250   -0.1690 C.3     1  UNL1       -0.0523
     19  C14        5.6060    0.4740    0.3800 C.3     1  UNL1       -0.0523
     20  C15        4.2490    0.6150   -0.3310 C.3     1  UNL1       -0.0419
     21  C16        0.7570    0.3340    0.0700 C.3     1  UNL1        0.0230
     22  C17       -4.3660   -0.7170    1.2150 C.ar    1  UNL1       -0.0356
     23  C18       -5.4350   -1.3280    0.6110 C.ar    1  UNL1        0.0302
     24  N5        -5.9970   -0.7500   -0.4850 N.ar    1  UNL1       -0.2407
     25 H          -5.8812    1.7708   -2.5321 H       1  UNL1        0.1437
     26 H          -6.9519    0.4439   -2.5071 H       1  UNL1        0.1437
     27 H          -4.0661    1.9128   -0.7496 H       1  UNL1        0.0658
     28 H          -3.5186    1.8744    3.2317 H       1  UNL1        0.0830
     29 H          -1.1455    2.0978    3.9404 H       1  UNL1        0.1882
     30 H          -1.3051    0.9312   -0.8970 H       1  UNL1        0.0380
     31 H          -1.8977   -1.4859   -0.7320 H       1  UNL1        0.0287
     32 H          -0.6916   -1.8635    0.3216 H       1  UNL1        0.0287
     33 H          -0.2382   -0.3622   -2.4193 H       1  UNL1        0.0465
     34 H           0.1947   -1.9550   -2.2900 H       1  UNL1        0.0465
     35 H           3.4619   -1.1171    0.6766 H       1  UNL1        0.0394
     36 H           5.0574   -1.4285   -1.9106 H       1  UNL1        0.0272
     37 H           4.9814   -2.5820   -0.6523 H       1  UNL1        0.0272
     38 H           6.9459   -0.6246   -0.8780 H       1  UNL1        0.0265
     39 H           6.5991   -1.4272    0.6044 H       1  UNL1        0.0265
     40 H           6.2471    1.2976    0.1443 H       1  UNL1        0.0265
     41 H           5.5156    0.4678    1.4462 H       1  UNL1        0.0265
     42 H           3.5880    1.2638    0.2048 H       1  UNL1        0.0272
     43 H           4.3011    1.0461   -1.3089 H       1  UNL1        0.0272
     44 H           0.9966    0.0333    1.0685 H       1  UNL1        0.0471
     45 H           1.1875    1.3054   -0.0563 H       1  UNL1        0.0471
     46 H          -3.9379   -1.1540    2.0461 H       1  UNL1        0.0639
     47 H          -5.8085   -2.2151    0.9832 H       1  UNL1        0.0830
@<TRIPOS>BOND
     1     1     2    1
     2     2     3   ar
     3     2    24   ar
     4     3     4   ar
     5     4     5    1
     6     4    22   ar
     7     5     6   ar
     8     5     9   ar
     9     6     7   ar
    10     7     8   ar
    11     8     9   ar
    12     9    10    1
    13    10    11    1
    14    10    21    1
    15    11    12    1
    16    12    13    1
    17    13    14   am
    18    13    21    1
    19    14    15    2
    20    14    16    1
    21    16    17    1
    22    16    20    1
    23    17    18    1
    24    18    19    1
    25    19    20    1
    26    22    23   ar
    27    23    24   ar
    28     1    25    1
    29     1    26    1
    30     3    27    1
    31     6    28    1
    32     7    29    1
    33    10    30    1
    34    11    31    1
    35    11    32    1
    36    12    33    1
    37    12    34    1
    38    16    35    1
    39    17    36    1
    40    17    37    1
    41    18    38    1
    42    18    39    1
    43    19    40    1
    44    19    41    1
    45    20    42    1
    46    20    43    1
    47    21    44    1
    48    21    45    1
    49    22    46    1
    50    23    47    1
@<TRIPOS>MOLECULE
../data/bude_mols_rdkit_confs2/molecule_6.pdb
 47 50 0 0 0
SMALL
GASTEIGER

@<TRIPOS>ATOM
      1  N1         3.9850    3.3910   -0.8170 N.pl3   1  UNL1       -0.3431
      2  C1         4.4750    2.0710   -0.5620 C.ar    1  UNL1        0.1167
      3  C2         3.6040    0.9880   -0.5860 C.ar    1  UNL1       -0.0143
      4  C3         4.0130   -0.2870   -0.3450 C.ar    1  UNL1       -0.0100
      5  C4         3.1610   -1.4680   -0.3580 C.ar    1  UNL1        0.0230
      6  C5         3.6350   -2.7110   -0.8160 C.ar    1  UNL1        0.0303
      7  N2         2.6750   -3.6290   -0.6470 N.ar    1  UNL1       -0.2839
      8  N3         1.6340   -3.0180   -0.1100 N.ar    1  UNL1       -0.1779
      9  C6         1.8990   -1.7040    0.0770 C.ar    1  UNL1        0.0751
     10  C7         0.9400   -0.7050    0.5950 C.3     1  UNL1        0.0208
     11  C8        -0.1300   -1.4220    1.4660 C.3     1  UNL1       -0.0274
     12  C9        -1.0880   -0.2190    1.5930 C.3     1  UNL1        0.0153
     13  N4        -1.2470    0.1120    0.1990 N.am    1  UNL1       -0.3006
     14  C10       -2.3560    0.6630   -0.4740 C.2     1  UNL1        0.2187
     15  O1        -2.3510    0.9090   -1.7130 O.2     1  UNL1       -0.2753
     16  C11       -3.5960    0.9790    0.2560 C.3     1  UNL1        0.0358
     17  C12       -4.2590   -0.2170    0.8500 C.3     1  UNL1       -0.0419
     18  C13       -5.6750   -0.2760    0.2700 C.3     1  UNL1       -0.0523
     19  C14       -5.9280    1.2200    0.0480 C.3     1  UNL1       -0.0523
     20  C15       -4.6370    1.6190   -0.6310 C.3     1  UNL1       -0.0419
     21  C16       -0.0050   -0.2390   -0.5180 C.3     1  UNL1        0.0230
     22  C17        5.3820   -0.4590   -0.0680 C.ar    1  UNL1       -0.0356
     23  C18        6.2190    0.5990   -0.0470 C.ar    1  UNL1        0.0302
     24  N5         5.7580    1.8300   -0.2910 N.ar    1  UNL1       -0.2407
     25 H           3.0308    3.5324   -1.0139 H       1  UNL1        0.1437
     26 H           4.6021    4.1578   -0.7956 H       1  UNL1        0.1437
     27 H           2.6077    1.1578   -0.7949 H       1  UNL1        0.0658
     28 H           4.5697   -2.8865   -1.2167 H       1  UNL1        0.0830
     29 H           2.7340   -4.5837   -0.8801 H       1  UNL1        0.1882
     30 H           1.5353    0.0506    1.0635 H       1  UNL1        0.0380
     31 H           0.2562   -1.7417    2.4113 H       1  UNL1        0.0287
     32 H          -0.5423   -2.3289    1.0755 H       1  UNL1        0.0287
     33 H          -0.6476    0.5845    2.1456 H       1  UNL1        0.0465
     34 H          -1.9984   -0.4174    2.1191 H       1  UNL1        0.0465
     35 H          -3.2672    1.6456    1.0257 H       1  UNL1        0.0394
     36 H          -4.3014   -0.1230    1.9150 H       1  UNL1        0.0272
     37 H          -3.7145   -1.1093    0.6214 H       1  UNL1        0.0272
     38 H          -6.3718   -0.6989    0.9632 H       1  UNL1        0.0265
     39 H          -5.7822   -0.8876   -0.6014 H       1  UNL1        0.0265
     40 H          -6.0646    1.7393    0.9735 H       1  UNL1        0.0265
     41 H          -6.8133    1.4450   -0.5092 H       1  UNL1        0.0265
     42 H          -4.5877    1.2324   -1.6275 H       1  UNL1        0.0272
     43 H          -4.5178    2.6770   -0.7370 H       1  UNL1        0.0272
     44 H          -0.1807   -1.0247   -1.2228 H       1  UNL1        0.0471
     45 H           0.3920    0.5785   -1.0828 H       1  UNL1        0.0471
     46 H           5.7497   -1.4046    0.1211 H       1  UNL1        0.0639
     47 H           7.2204    0.4573    0.1585 H       1  UNL1        0.0830
@<TRIPOS>BOND
     1     1     2    1
     2     2     3   ar
     3     2    24   ar
     4     3     4   ar
     5     4     5    1
     6     4    22   ar
     7     5     6   ar
     8     5     9   ar
     9     6     7   ar
    10     7     8   ar
    11     8     9   ar
    12     9    10    1
    13    10    11    1
    14    10    21    1
    15    11    12    1
    16    12    13    1
    17    13    14   am
    18    13    21    1
    19    14    15    2
    20    14    16    1
    21    16    17    1
    22    16    20    1
    23    17    18    1
    24    18    19    1
    25    19    20    1
    26    22    23   ar
    27    23    24   ar
    28     1    25    1
    29     1    26    1
    30     3    27    1
    31     6    28    1
    32     7    29    1
    33    10    30    1
    34    11    31    1
    35    11    32    1
    36    12    33    1
    37    12    34    1
    38    16    35    1
    39    17    36    1
    40    17    37    1
    41    18    38    1
    42    18    39    1
    43    19    40    1
    44    19    41    1
    45    20    42    1
    46    20    43    1
    47    21    44    1
    48    21    45    1
    49    22    46    1
    50    23    47    1
@<TRIPOS>MOLECULE
../data/bude_mols_rdkit_confs2/molecule_6.pdb
 47 50 0 0 0
SMALL
GASTEIGER

@<TRIPOS>ATOM
      1  N1         7.3270   -0.5390    0.0020 N.pl3   1  UNL1       -0.3431
      2  C1         5.9660   -0.9400   -0.2500 C.ar    1  UNL1        0.1167
      3  C2         4.9460   -0.2260    0.3120 C.ar    1  UNL1       -0.0143
      4  C3         3.5810   -0.5430    0.1220 C.ar    1  UNL1       -0.0100
      5  C4         2.5790    0.2840    0.7780 C.ar    1  UNL1        0.0230
      6  C5         2.7150    0.6570    2.1170 C.ar    1  UNL1        0.0303
      7  N2         1.6610    1.4450    2.3920 N.ar    1  UNL1       -0.2839
      8  N3         0.9110    1.5650    1.3150 N.ar    1  UNL1       -0.1779
      9  C6         1.4580    0.8520    0.2960 C.ar    1  UNL1        0.0751
     10  C7         0.8280    0.7500   -1.0320 C.3     1  UNL1        0.0208
     11  C8        -0.1410    1.9270   -1.2430 C.3     1  UNL1       -0.0274
     12  C9        -1.4160    1.2390   -1.6490 C.3     1  UNL1        0.0153
     13  N4        -1.3930    0.1040   -0.7180 N.am    1  UNL1       -0.3006
     14  C10       -2.3400   -0.2940    0.2470 C.2     1  UNL1        0.2187
     15  O1        -2.1150   -1.3170    0.9320 O.2     1  UNL1       -0.2753
     16  C11       -3.6090    0.4840    0.4690 C.3     1  UNL1        0.0358
     17  C12       -4.5670    0.3510   -0.6770 C.3     1  UNL1       -0.0419
     18  C13       -5.3450   -0.9000   -0.3490 C.3     1  UNL1       -0.0523
     19  C14       -5.6720   -0.6350    1.1230 C.3     1  UNL1       -0.0523
     20  C15       -4.3720   -0.0290    1.6590 C.3     1  UNL1       -0.0419
     21  C16       -0.0900   -0.4980   -1.0450 C.3     1  UNL1        0.0230
     22  C17        3.3350   -1.6260   -0.6710 C.ar    1  UNL1       -0.0356
     23  C18        4.3810   -2.3580   -1.2470 C.ar    1  UNL1        0.0302
     24  N5         5.6520   -1.9920   -1.0180 N.ar    1  UNL1       -0.2407
     25 H           7.5126    0.2412    0.5731 H       1  UNL1        0.1437
     26 H           8.0712   -1.0452   -0.3969 H       1  UNL1        0.1437
     27 H           5.1833    0.5849    0.9046 H       1  UNL1        0.0658
     28 H           3.4710    0.3833    2.7640 H       1  UNL1        0.0830
     29 H           1.4779    1.8668    3.2625 H       1  UNL1        0.1882
     30 H           1.6030    0.7223   -1.7692 H       1  UNL1        0.0380
     31 H           0.2078    2.5798   -2.0157 H       1  UNL1        0.0287
     32 H          -0.2505    2.5465   -0.3775 H       1  UNL1        0.0287
     33 H          -1.3877    0.9178   -2.6692 H       1  UNL1        0.0465
     34 H          -2.2947    1.8475   -1.6001 H       1  UNL1        0.0465
     35 H          -3.2852    1.4957    0.5976 H       1  UNL1        0.0394
     36 H          -4.0417    0.2420   -1.6028 H       1  UNL1        0.0272
     37 H          -5.1937    1.2101   -0.7956 H       1  UNL1        0.0272
     38 H          -4.7496   -1.7807   -0.4707 H       1  UNL1        0.0265
     39 H          -6.1955   -1.0773   -0.9736 H       1  UNL1        0.0265
     40 H          -5.9121   -1.5441    1.6336 H       1  UNL1        0.0265
     41 H          -6.5219    0.0007    1.2590 H       1  UNL1        0.0265
     42 H          -4.5898    0.7745    2.3313 H       1  UNL1        0.0272
     43 H          -3.8014   -0.7577    2.1960 H       1  UNL1        0.0272
     44 H           0.2086   -1.2124   -0.3065 H       1  UNL1        0.0471
     45 H          -0.0764   -1.0443   -1.9649 H       1  UNL1        0.0471
     46 H           2.3594   -1.9112   -0.8497 H       1  UNL1        0.0639
     47 H           4.1757   -3.1742   -1.8442 H       1  UNL1        0.0830
@<TRIPOS>BOND
     1     1     2    1
     2     2     3   ar
     3     2    24   ar
     4     3     4   ar
     5     4     5    1
     6     4    22   ar
     7     5     6   ar
     8     5     9   ar
     9     6     7   ar
    10     7     8   ar
    11     8     9   ar
    12     9    10    1
    13    10    11    1
    14    10    21    1
    15    11    12    1
    16    12    13    1
    17    13    14   am
    18    13    21    1
    19    14    15    2
    20    14    16    1
    21    16    17    1
    22    16    20    1
    23    17    18    1
    24    18    19    1
    25    19    20    1
    26    22    23   ar
    27    23    24   ar
    28     1    25    1
    29     1    26    1
    30     3    27    1
    31     6    28    1
    32     7    29    1
    33    10    30    1
    34    11    31    1
    35    11    32    1
    36    12    33    1
    37    12    34    1
    38    16    35    1
    39    17    36    1
    40    17    37    1
    41    18    38    1
    42    18    39    1
    43    19    40    1
    44    19    41    1
    45    20    42    1
    46    20    43    1
    47    21    44    1
    48    21    45    1
    49    22    46    1
    50    23    47    1
@<TRIPOS>MOLECULE
../data/bude_mols_rdkit_confs2/molecule_6.pdb
 47 50 0 0 0
SMALL
GASTEIGER

@<TRIPOS>ATOM
      1  N1        -3.6030    2.9290    1.6470 N.pl3   1  UNL1       -0.3431
      2  C1        -3.7140    1.5050    1.6700 C.ar    1  UNL1        0.1167
      3  C2        -3.4210    0.7670    0.5420 C.ar    1  UNL1       -0.0143
      4  C3        -3.5340   -0.6020    0.5830 C.ar    1  UNL1       -0.0100
      5  C4        -3.2410   -1.4780   -0.5450 C.ar    1  UNL1        0.0230
      6  C5        -4.1250   -2.4600   -0.9470 C.ar    1  UNL1        0.0303
      7  N2        -3.5630   -3.0740   -2.0010 N.ar    1  UNL1       -0.2839
      8  N3        -2.3940   -2.5070   -2.2440 N.ar    1  UNL1       -0.1779
      9  C6        -2.1470   -1.5110   -1.3680 C.ar    1  UNL1        0.0751
     10  C7        -0.9790   -0.6260   -1.2650 C.3     1  UNL1        0.0208
     11  C8         0.1030   -1.0260   -2.2850 C.3     1  UNL1       -0.0274
     12  C9         1.2650   -0.1700   -1.7590 C.3     1  UNL1        0.0153
     13  N4         1.0490   -0.1190   -0.3370 N.am    1  UNL1       -0.3006
     14  C10        1.9120    0.4850    0.6090 C.2     1  UNL1        0.2187
     15  O1         1.6420    0.4880    1.8430 O.2     1  UNL1       -0.2753
     16  C11        3.1510    1.1250    0.1660 C.3     1  UNL1        0.0358
     17  C12        4.1360    0.1480   -0.4610 C.3     1  UNL1       -0.0419
     18  C13        5.4580    0.3770    0.2730 C.3     1  UNL1       -0.0523
     19  C14        5.3090    1.7940    0.7920 C.3     1  UNL1       -0.0523
     20  C15        3.8800    1.7250    1.3490 C.3     1  UNL1       -0.0419
     21  C16       -0.2080   -0.7850    0.0170 C.3     1  UNL1        0.0230
     22  C17       -3.9440   -1.2010    1.7710 C.ar    1  UNL1       -0.0356
     23  C18       -4.2260   -0.4460    2.8660 C.ar    1  UNL1        0.0302
     24  N5        -4.1060    0.8950    2.7960 N.ar    1  UNL1       -0.2407
     25 H          -3.3157    3.3871    0.8243 H       1  UNL1        0.1437
     26 H          -3.8138    3.4523    2.4538 H       1  UNL1        0.1437
     27 H          -3.1196    1.2387   -0.3250 H       1  UNL1        0.0658
     28 H          -5.0389   -2.6792   -0.5207 H       1  UNL1        0.0830
     29 H          -3.9559   -3.8211   -2.5077 H       1  UNL1        0.1882
     30 H          -1.4023    0.3493   -1.3856 H       1  UNL1        0.0380
     31 H          -0.1706   -0.7590   -3.2844 H       1  UNL1        0.0287
     32 H           0.3016   -2.0751   -2.3547 H       1  UNL1        0.0287
     33 H           1.2355    0.8120   -2.1830 H       1  UNL1        0.0465
     34 H           2.2217   -0.5755   -2.0144 H       1  UNL1        0.0465
     35 H           2.8491    1.8563   -0.5544 H       1  UNL1        0.0394
     36 H           4.2484    0.3486   -1.5060 H       1  UNL1        0.0272
     37 H           3.8023   -0.8648   -0.3732 H       1  UNL1        0.0272
     38 H           6.2896    0.2962   -0.3954 H       1  UNL1        0.0265
     39 H           5.6456   -0.3405    1.0443 H       1  UNL1        0.0265
     40 H           5.3947    2.5156    0.0066 H       1  UNL1        0.0265
     41 H           6.0539    2.0959    1.4983 H       1  UNL1        0.0265
     42 H           3.8220    1.0931    2.2105 H       1  UNL1        0.0272
     43 H           3.4874    2.6615    1.6862 H       1  UNL1        0.0272
     44 H          -0.0535   -1.8158    0.2588 H       1  UNL1        0.0471
     45 H          -0.6953   -0.3834    0.8808 H       1  UNL1        0.0471
     46 H          -4.0347   -2.2278    1.8210 H       1  UNL1        0.0639
     47 H          -4.5295   -0.8959    3.7438 H       1  UNL1        0.0830
@<TRIPOS>BOND
     1     1     2    1
     2     2     3   ar
     3     2    24   ar
     4     3     4   ar
     5     4     5    1
     6     4    22   ar
     7     5     6   ar
     8     5     9   ar
     9     6     7   ar
    10     7     8   ar
    11     8     9   ar
    12     9    10    1
    13    10    11    1
    14    10    21    1
    15    11    12    1
    16    12    13    1
    17    13    14   am
    18    13    21    1
    19    14    15    2
    20    14    16    1
    21    16    17    1
    22    16    20    1
    23    17    18    1
    24    18    19    1
    25    19    20    1
    26    22    23   ar
    27    23    24   ar
    28     1    25    1
    29     1    26    1
    30     3    27    1
    31     6    28    1
    32     7    29    1
    33    10    30    1
    34    11    31    1
    35    11    32    1
    36    12    33    1
    37    12    34    1
    38    16    35    1
    39    17    36    1
    40    17    37    1
    41    18    38    1
    42    18    39    1
    43    19    40    1
    44    19    41    1
    45    20    42    1
    46    20    43    1
    47    21    44    1
    48    21    45    1
    49    22    46    1
    50    23    47    1
@<TRIPOS>MOLECULE
../data/bude_mols_rdkit_confs2/molecule_6.pdb
 47 50 0 0 0
SMALL
GASTEIGER

@<TRIPOS>ATOM
      1  N1         7.3870   -0.1030    0.6310 N.pl3   1  UNL1       -0.3431
      2  C1         6.1460    0.3650    0.1320 C.ar    1  UNL1        0.1167
      3  C2         5.0380   -0.4290    0.0420 C.ar    1  UNL1       -0.0143
      4  C3         3.7890    0.0540   -0.4460 C.ar    1  UNL1       -0.0100
      5  C4         2.6510   -0.8010   -0.3610 C.ar    1  UNL1        0.0230
      6  C5         2.7730   -2.1890   -0.2200 C.ar    1  UNL1        0.0303
      7  N2         1.6050   -2.7380    0.0450 N.ar    1  UNL1       -0.2839
      8  N3         0.7150   -1.7630    0.0800 N.ar    1  UNL1       -0.1779
      9  C6         1.3050   -0.5470   -0.1710 C.ar    1  UNL1        0.0751
     10  C7         0.6570    0.7160   -0.4700 C.3     1  UNL1        0.0208
     11  C8         0.1420    1.5860    0.6100 C.3     1  UNL1       -0.0274
     12  C9        -0.5790    0.5840    1.4580 C.3     1  UNL1        0.0153
     13  N4        -1.5150    0.0830    0.3980 N.am    1  UNL1       -0.3006
     14  C10       -2.7890   -0.3330    0.7570 C.2     1  UNL1        0.2187
     15  O1        -3.0830   -0.1630    2.0440 O.2     1  UNL1       -0.2753
     16  C11       -3.8680   -0.9340   -0.0240 C.3     1  UNL1        0.0358
     17  C12       -5.1950   -0.8230    0.7660 C.3     1  UNL1       -0.0419
     18  C13       -5.9580    0.3090    0.1300 C.3     1  UNL1       -0.0523
     19  C14       -5.0950    0.8470   -0.9920 C.3     1  UNL1       -0.0523
     20  C15       -4.2180   -0.3350   -1.3280 C.3     1  UNL1       -0.0419
     21  C16       -0.8450    0.1890   -0.8550 C.3     1  UNL1        0.0230
     22  C17        3.8240    1.3690   -0.8070 C.ar    1  UNL1       -0.0356
     23  C18        4.9500    2.1530   -0.7090 C.ar    1  UNL1        0.0302
     24  N5         6.0960    1.6510   -0.2450 N.ar    1  UNL1       -0.2407
     25 H           7.4791   -1.0390    0.9219 H       1  UNL1        0.1437
     26 H           8.1570    0.5079    0.6868 H       1  UNL1        0.1437
     27 H           5.1079   -1.4151    0.3383 H       1  UNL1        0.0658
     28 H           3.6584   -2.7113   -0.3113 H       1  UNL1        0.0830
     29 H           1.4287   -3.6957    0.1898 H       1  UNL1        0.1882
     30 H           1.3659    1.2393   -1.0771 H       1  UNL1        0.0380
     31 H          -0.5240    2.3325    0.2304 H       1  UNL1        0.0287
     32 H           0.8951    2.1435    1.1267 H       1  UNL1        0.0287
     33 H          -1.0952    1.0381    2.2779 H       1  UNL1        0.0465
     34 H           0.0254   -0.1506    1.9479 H       1  UNL1        0.0465
     35 H          -3.4760   -1.9135   -0.2024 H       1  UNL1        0.0394
     36 H          -4.9987   -0.6079    1.7956 H       1  UNL1        0.0272
     37 H          -5.7493   -1.7377    0.7351 H       1  UNL1        0.0272
     38 H          -6.1450    1.0773    0.8509 H       1  UNL1        0.0265
     39 H          -6.9029   -0.0280   -0.2421 H       1  UNL1        0.0265
     40 H          -4.5104    1.6809   -0.6639 H       1  UNL1        0.0265
     41 H          -5.6585    1.2098   -1.8261 H       1  UNL1        0.0265
     42 H          -4.7503   -1.0380   -1.9341 H       1  UNL1        0.0272
     43 H          -3.3503   -0.0467   -1.8838 H       1  UNL1        0.0272
     44 H          -0.7992   -0.7628   -1.3416 H       1  UNL1        0.0471
     45 H          -1.3475    0.8479   -1.5319 H       1  UNL1        0.0471
     46 H           2.9599    1.7984   -1.1730 H       1  UNL1        0.0639
     47 H           4.9079    3.1428   -0.9982 H       1  UNL1        0.0830
@<TRIPOS>BOND
     1     1     2    1
     2     2     3   ar
     3     2    24   ar
     4     3     4   ar
     5     4     5    1
     6     4    22   ar
     7     5     6   ar
     8     5     9   ar
     9     6     7   ar
    10     7     8   ar
    11     8     9   ar
    12     9    10    1
    13    10    11    1
    14    10    21    1
    15    11    12    1
    16    12    13    1
    17    13    14   am
    18    13    21    1
    19    14    15    2
    20    14    16    1
    21    16    17    1
    22    16    20    1
    23    17    18    1
    24    18    19    1
    25    19    20    1
    26    22    23   ar
    27    23    24   ar
    28     1    25    1
    29     1    26    1
    30     3    27    1
    31     6    28    1
    32     7    29    1
    33    10    30    1
    34    11    31    1
    35    11    32    1
    36    12    33    1
    37    12    34    1
    38    16    35    1
    39    17    36    1
    40    17    37    1
    41    18    38    1
    42    18    39    1
    43    19    40    1
    44    19    41    1
    45    20    42    1
    46    20    43    1
    47    21    44    1
    48    21    45    1
    49    22    46    1
    50    23    47    1
@<TRIPOS>MOLECULE
../data/bude_mols_rdkit_confs2/molecule_6.pdb
 47 50 0 0 0
SMALL
GASTEIGER

@<TRIPOS>ATOM
      1  N1         5.1140    2.3560    2.4750 N.pl3   1  UNL1       -0.3431
      2  C1         4.5430    1.6930    1.3530 C.ar    1  UNL1        0.1167
      3  C2         4.0140    0.3970    1.4040 C.ar    1  UNL1       -0.0143
      4  C3         3.5020   -0.1770    0.2950 C.ar    1  UNL1       -0.0100
      5  C4         3.0390   -1.5680    0.2030 C.ar    1  UNL1        0.0230
      6  C5         3.7900   -2.6830    0.4440 C.ar    1  UNL1        0.0303
      7  N2         3.0710   -3.7190    0.0460 N.ar    1  UNL1       -0.2839
      8  N3         1.9400   -3.3130   -0.4150 N.ar    1  UNL1       -0.1779
      9  C6         1.8360   -1.9330   -0.3420 C.ar    1  UNL1        0.0751
     10  C7         0.6080   -1.2330   -0.5730 C.3     1  UNL1        0.0208
     11  C8         0.1720   -0.8920   -1.9690 C.3     1  UNL1       -0.0274
     12  C9        -1.2080   -0.2240   -1.6680 C.3     1  UNL1        0.0153
     13  N4        -1.3350   -0.2110   -0.2320 N.am    1  UNL1       -0.3006
     14  C10       -2.4960   -0.2680    0.5630 C.2     1  UNL1        0.2187
     15  O1        -2.3490   -0.2500    1.8050 O.2     1  UNL1       -0.2753
     16  C11       -3.8450   -0.3290   -0.1050 C.3     1  UNL1        0.0358
     17  C12       -4.9200   -0.1980    0.9430 C.3     1  UNL1       -0.0419
     18  C13       -5.2260    1.3140    1.0320 C.3     1  UNL1       -0.0523
     19  C14       -4.2170    1.9500    0.0800 C.3     1  UNL1       -0.0523
     20  C15       -4.1520    0.8510   -0.9730 C.3     1  UNL1       -0.0419
     21  C16        0.0640   -0.1610    0.2960 C.3     1  UNL1        0.0230
     22  C17        3.4980    0.5170   -0.8920 C.ar    1  UNL1       -0.0356
     23  C18        4.0300    1.8120   -0.9430 C.ar    1  UNL1        0.0302
     24  N5         4.5210    2.3250    0.1800 N.ar    1  UNL1       -0.2407
     25 H           5.1405    1.9073    3.3509 H       1  UNL1        0.1437
     26 H           5.4826    3.2635    2.3754 H       1  UNL1        0.1437
     27 H           4.0158   -0.1225    2.2957 H       1  UNL1        0.0658
     28 H           4.7354   -2.7115    0.8568 H       1  UNL1        0.0830
     29 H           3.3578   -4.6595    0.0950 H       1  UNL1        0.1882
     30 H           0.2072   -2.1555   -0.2079 H       1  UNL1        0.0380
     31 H           0.0656   -1.7665   -2.5763 H       1  UNL1        0.0287
     32 H           0.8576   -0.2812   -2.5183 H       1  UNL1        0.0287
     33 H          -2.0007   -0.7932   -2.1067 H       1  UNL1        0.0465
     34 H          -1.2644    0.7633   -2.0766 H       1  UNL1        0.0465
     35 H          -3.8220   -1.2422   -0.6622 H       1  UNL1        0.0394
     36 H          -4.5706   -0.5651    1.8853 H       1  UNL1        0.0272
     37 H          -5.7914   -0.7657    0.6916 H       1  UNL1        0.0272
     38 H          -5.0857    1.6726    2.0303 H       1  UNL1        0.0265
     39 H          -6.2385    1.5457    0.7748 H       1  UNL1        0.0265
     40 H          -3.2693    2.1112    0.5499 H       1  UNL1        0.0265
     41 H          -4.4797    2.9207   -0.2855 H       1  UNL1        0.0265
     42 H          -5.0853    0.7355   -1.4835 H       1  UNL1        0.0272
     43 H          -3.4484    1.0245   -1.7602 H       1  UNL1        0.0272
     44 H           0.5345    0.7849    0.1263 H       1  UNL1        0.0471
     45 H           0.1877   -0.2841    1.3517 H       1  UNL1        0.0471
     46 H           3.1043    0.0853   -1.7427 H       1  UNL1        0.0639
     47 H           4.0402    2.3498   -1.8238 H       1  UNL1        0.0830
@<TRIPOS>BOND
     1     1     2    1
     2     2     3   ar
     3     2    24   ar
     4     3     4   ar
     5     4     5    1
     6     4    22   ar
     7     5     6   ar
     8     5     9   ar
     9     6     7   ar
    10     7     8   ar
    11     8     9   ar
    12     9    10    1
    13    10    11    1
    14    10    21    1
    15    11    12    1
    16    12    13    1
    17    13    14   am
    18    13    21    1
    19    14    15    2
    20    14    16    1
    21    16    17    1
    22    16    20    1
    23    17    18    1
    24    18    19    1
    25    19    20    1
    26    22    23   ar
    27    23    24   ar
    28     1    25    1
    29     1    26    1
    30     3    27    1
    31     6    28    1
    32     7    29    1
    33    10    30    1
    34    11    31    1
    35    11    32    1
    36    12    33    1
    37    12    34    1
    38    16    35    1
    39    17    36    1
    40    17    37    1
    41    18    38    1
    42    18    39    1
    43    19    40    1
    44    19    41    1
    45    20    42    1
    46    20    43    1
    47    21    44    1
    48    21    45    1
    49    22    46    1
    50    23    47    1
@<TRIPOS>MOLECULE
../data/bude_mols_rdkit_confs2/molecule_6.pdb
 47 50 0 0 0
SMALL
GASTEIGER

@<TRIPOS>ATOM
      1  N1        -7.2380    0.1480    1.6530 N.pl3   1  UNL1       -0.3431
      2  C1        -6.1980   -0.3900    0.8390 C.ar    1  UNL1        0.1167
      3  C2        -5.1370    0.4020    0.4810 C.ar    1  UNL1       -0.0143
      4  C3        -4.0660   -0.1070   -0.3170 C.ar    1  UNL1       -0.0100
      5  C4        -2.9510    0.8060   -0.5340 C.ar    1  UNL1        0.0230
      6  C5        -3.1110    2.1770   -0.6130 C.ar    1  UNL1        0.0303
      7  N2        -1.9000    2.7750   -0.6050 N.ar    1  UNL1       -0.2839
      8  N3        -1.0210    1.8340   -0.5280 N.ar    1  UNL1       -0.1779
      9  C6        -1.5870    0.5850   -0.4840 C.ar    1  UNL1        0.0751
     10  C7        -0.8180   -0.6560   -0.6240 C.3     1  UNL1        0.0208
     11  C8        -0.1200   -1.1220    0.6350 C.3     1  UNL1       -0.0274
     12  C9         1.1790   -0.4770    0.7750 C.3     1  UNL1        0.0153
     13  N4         1.5290   -0.0610   -0.6000 N.am    1  UNL1       -0.3006
     14  C10        2.8260    0.4390   -0.9240 C.2     1  UNL1        0.2187
     15  O1         3.0760    0.8360   -2.0600 O.2     1  UNL1       -0.2753
     16  C11        3.8900    0.4690    0.1250 C.3     1  UNL1        0.0358
     17  C12        5.0900    1.2430   -0.2620 C.3     1  UNL1       -0.0419
     18  C13        6.2710    0.4750    0.2850 C.3     1  UNL1       -0.0523
     19  C14        5.8760   -0.9590    0.0100 C.3     1  UNL1       -0.0523
     20  C15        4.3830   -0.9530    0.3890 C.3     1  UNL1       -0.0419
     21  C16        0.4440   -0.2710   -1.4860 C.3     1  UNL1        0.0230
     22  C17       -4.1120   -1.3870   -0.7210 C.ar    1  UNL1       -0.0356
     23  C18       -5.2070   -2.1880   -0.3490 C.ar    1  UNL1        0.0302
     24  N5        -6.1850   -1.6690    0.4000 N.ar    1  UNL1       -0.2407
     25 H          -7.1982    1.0872    1.9454 H       1  UNL1        0.1437
     26 H          -7.9957   -0.4198    1.9226 H       1  UNL1        0.1437
     27 H          -5.1114    1.3850    0.7940 H       1  UNL1        0.0658
     28 H          -4.0169    2.6682   -0.6694 H       1  UNL1        0.0830
     29 H          -1.7224    3.7423   -0.6494 H       1  UNL1        0.1882
     30 H          -1.5100   -1.3899   -0.9810 H       1  UNL1        0.0380
     31 H           0.0179   -2.1820    0.5879 H       1  UNL1        0.0287
     32 H          -0.7247   -0.8624    1.4787 H       1  UNL1        0.0287
     33 H           1.9039   -1.1637    1.1596 H       1  UNL1        0.0465
     34 H           1.1558    0.3461    1.4583 H       1  UNL1        0.0465
     35 H           3.4355    0.9297    0.9771 H       1  UNL1        0.0394
     36 H           5.0539    2.2238    0.1642 H       1  UNL1        0.0272
     37 H           5.1558    1.3622   -1.3233 H       1  UNL1        0.0272
     38 H           6.3947    0.6489    1.3335 H       1  UNL1        0.0265
     39 H           7.2056    0.7546   -0.1547 H       1  UNL1        0.0265
     40 H           6.4304   -1.6399    0.6215 H       1  UNL1        0.0265
     41 H           6.0669   -1.2760   -0.9940 H       1  UNL1        0.0265
     42 H           3.8429   -1.6523   -0.2145 H       1  UNL1        0.0272
     43 H           4.2356   -1.2368    1.4101 H       1  UNL1        0.0272
     44 H           0.2475    0.6239   -2.0386 H       1  UNL1        0.0471
     45 H           0.6747   -1.0530   -2.1789 H       1  UNL1        0.0471
     46 H          -3.3518   -1.7790   -1.2985 H       1  UNL1        0.0639
     47 H          -5.2551   -3.1729   -0.6533 H       1  UNL1        0.0830
@<TRIPOS>BOND
     1     1     2    1
     2     2     3   ar
     3     2    24   ar
     4     3     4   ar
     5     4     5    1
     6     4    22   ar
     7     5     6   ar
     8     5     9   ar
     9     6     7   ar
    10     7     8   ar
    11     8     9   ar
    12     9    10    1
    13    10    11    1
    14    10    21    1
    15    11    12    1
    16    12    13    1
    17    13    14   am
    18    13    21    1
    19    14    15    2
    20    14    16    1
    21    16    17    1
    22    16    20    1
    23    17    18    1
    24    18    19    1
    25    19    20    1
    26    22    23   ar
    27    23    24   ar
    28     1    25    1
    29     1    26    1
    30     3    27    1
    31     6    28    1
    32     7    29    1
    33    10    30    1
    34    11    31    1
    35    11    32    1
    36    12    33    1
    37    12    34    1
    38    16    35    1
    39    17    36    1
    40    17    37    1
    41    18    38    1
    42    18    39    1
    43    19    40    1
    44    19    41    1
    45    20    42    1
    46    20    43    1
    47    21    44    1
    48    21    45    1
    49    22    46    1
    50    23    47    1
@<TRIPOS>MOLECULE
../data/bude_mols_rdkit_confs2/molecule_6.pdb
 47 50 0 0 0
SMALL
GASTEIGER

@<TRIPOS>ATOM
      1  N1         6.5910   -1.8010    0.0490 N.pl3   1  UNL1       -0.3431
      2  C1         5.1800   -1.7150    0.1460 C.ar    1  UNL1        0.1167
      3  C2         4.4900   -0.5540    0.2620 C.ar    1  UNL1       -0.0143
      4  C3         3.0910   -0.4500    0.3490 C.ar    1  UNL1       -0.0100
      5  C4         2.4690    0.8580    0.4880 C.ar    1  UNL1        0.0230
      6  C5         2.8210    1.7890    1.4870 C.ar    1  UNL1        0.0303
      7  N2         2.0760    2.9020    1.3180 N.ar    1  UNL1       -0.2839
      8  N3         1.2970    2.6950    0.2770 N.ar    1  UNL1       -0.1779
      9  C6         1.5060    1.4630   -0.2560 C.ar    1  UNL1        0.0751
     10  C7         0.7770    0.9120   -1.4120 C.3     1  UNL1        0.0208
     11  C8         0.1440    2.0090   -2.2540 C.3     1  UNL1       -0.0274
     12  C9        -1.2060    2.2730   -1.6790 C.3     1  UNL1        0.0153
     13  N4        -1.5280    1.1380   -0.8510 N.am    1  UNL1       -0.3006
     14  C10       -2.7280    0.9840   -0.1230 C.2     1  UNL1        0.2187
     15  O1        -3.6240    1.8860   -0.1370 O.2     1  UNL1       -0.2753
     16  C11       -2.9440   -0.2550    0.6690 C.3     1  UNL1        0.0358
     17  C12       -4.2330   -0.1760    1.4650 C.3     1  UNL1       -0.0419
     18  C13       -5.2570   -0.6050    0.4400 C.3     1  UNL1       -0.0523
     19  C14       -4.5980   -1.8350   -0.1470 C.3     1  UNL1       -0.0523
     20  C15       -3.1700   -1.3890   -0.3310 C.3     1  UNL1       -0.0419
     21  C16       -0.4390    0.1650   -0.8490 C.3     1  UNL1        0.0230
     22  C17        2.4240   -1.6440    0.3100 C.ar    1  UNL1       -0.0356
     23  C18        3.1320   -2.8410    0.1910 C.ar    1  UNL1        0.0302
     24  N5         4.4750   -2.8760    0.1120 N.ar    1  UNL1       -0.2407
     25 H           7.1367   -0.9818    0.0699 H       1  UNL1        0.1437
     26 H           7.0257   -2.6799   -0.0393 H       1  UNL1        0.1437
     27 H           5.0346    0.3222    0.2885 H       1  UNL1        0.0658
     28 H           3.5292    1.6438    2.2235 H       1  UNL1        0.0830
     29 H           2.1090    3.7164    1.8701 H       1  UNL1        0.1882
     30 H           1.4639    0.3269   -1.9871 H       1  UNL1        0.0380
     31 H           0.0543    1.6870   -3.2704 H       1  UNL1        0.0287
     32 H           0.7445    2.8945   -2.2428 H       1  UNL1        0.0287
     33 H          -1.9277    2.3756   -2.4623 H       1  UNL1        0.0465
     34 H          -1.2140    3.1802   -1.1117 H       1  UNL1        0.0465
     35 H          -2.1066   -0.3964    1.3198 H       1  UNL1        0.0394
     36 H          -4.4187    0.8205    1.8076 H       1  UNL1        0.0272
     37 H          -4.2314   -0.7742    2.3521 H       1  UNL1        0.0272
     38 H          -5.4070    0.1504   -0.3028 H       1  UNL1        0.0265
     39 H          -6.2316   -0.7827    0.8443 H       1  UNL1        0.0265
     40 H          -5.0427   -2.1016   -1.0830 H       1  UNL1        0.0265
     41 H          -4.6956   -2.7043    0.4692 H       1  UNL1        0.0265
     42 H          -2.4999   -2.1988   -0.1308 H       1  UNL1        0.0272
     43 H          -2.9894   -1.0650   -1.3346 H       1  UNL1        0.0272
     44 H          -0.2419   -0.1740    0.1466 H       1  UNL1        0.0471
     45 H          -0.6782   -0.7006   -1.4307 H       1  UNL1        0.0471
     46 H           1.3938   -1.6596    0.3688 H       1  UNL1        0.0639
     47 H           2.6077   -3.7295    0.1626 H       1  UNL1        0.0830
@<TRIPOS>BOND
     1     1     2    1
     2     2     3   ar
     3     2    24   ar
     4     3     4   ar
     5     4     5    1
     6     4    22   ar
     7     5     6   ar
     8     5     9   ar
     9     6     7   ar
    10     7     8   ar
    11     8     9   ar
    12     9    10    1
    13    10    11    1
    14    10    21    1
    15    11    12    1
    16    12    13    1
    17    13    14   am
    18    13    21    1
    19    14    15    2
    20    14    16    1
    21    16    17    1
    22    16    20    1
    23    17    18    1
    24    18    19    1
    25    19    20    1
    26    22    23   ar
    27    23    24   ar
    28     1    25    1
    29     1    26    1
    30     3    27    1
    31     6    28    1
    32     7    29    1
    33    10    30    1
    34    11    31    1
    35    11    32    1
    36    12    33    1
    37    12    34    1
    38    16    35    1
    39    17    36    1
    40    17    37    1
    41    18    38    1
    42    18    39    1
    43    19    40    1
    44    19    41    1
    45    20    42    1
    46    20    43    1
    47    21    44    1
    48    21    45    1
    49    22    46    1
    50    23    47    1
@<TRIPOS>MOLECULE
../data/bude_mols_rdkit_confs2/molecule_6.pdb
 47 50 0 0 0
SMALL
GASTEIGER

@<TRIPOS>ATOM
      1  N1         6.9280    0.8230    1.9710 N.pl3   1  UNL1       -0.3431
      2  C1         5.6960    1.0210    1.2910 C.ar    1  UNL1        0.1167
      3  C2         5.0100   -0.0170    0.6470 C.ar    1  UNL1       -0.0143
      4  C3         3.8170    0.2190   -0.0020 C.ar    1  UNL1       -0.0100
      5  C4         3.1420   -0.8710   -0.6810 C.ar    1  UNL1        0.0230
      6  C5         3.7840   -1.6170   -1.6640 C.ar    1  UNL1        0.0303
      7  N2         2.9160   -2.5240   -2.0990 N.ar    1  UNL1       -0.2839
      8  N3         1.7830   -2.3810   -1.4440 N.ar    1  UNL1       -0.1779
      9  C6         1.8860   -1.3730   -0.5630 C.ar    1  UNL1        0.0751
     10  C7         0.8310   -0.9210    0.3480 C.3     1  UNL1        0.0208
     11  C8        -0.2820   -1.9900    0.3260 C.3     1  UNL1       -0.0274
     12  C9        -1.3910   -1.1960    1.0170 C.3     1  UNL1        0.0153
     13  N4        -1.3510    0.0310    0.2560 N.am    1  UNL1       -0.3006
     14  C10       -2.4120    0.8850   -0.1170 C.2     1  UNL1        0.2187
     15  O1        -2.1860    1.9360   -0.7760 O.2     1  UNL1       -0.2753
     16  C11       -3.8140    0.6100    0.2290 C.3     1  UNL1        0.0358
     17  C12       -4.7200    1.7860   -0.0960 C.3     1  UNL1       -0.0419
     18  C13       -6.0990    1.1410    0.0590 C.3     1  UNL1       -0.0523
     19  C14       -5.9070   -0.3170   -0.2760 C.3     1  UNL1       -0.0523
     20  C15       -4.4450   -0.4350   -0.7030 C.3     1  UNL1       -0.0419
     21  C16        0.0570    0.2770   -0.1040 C.3     1  UNL1        0.0230
     22  C17        3.3210    1.4750   -0.0070 C.ar    1  UNL1       -0.0356
     23  C18        3.9990    2.5150    0.6320 C.ar    1  UNL1        0.0302
     24  N5         5.1520    2.2500    1.2520 N.ar    1  UNL1       -0.2407
     25 H           7.3333   -0.0736    2.0044 H       1  UNL1        0.1437
     26 H           7.3763    1.5824    2.4087 H       1  UNL1        0.1437
     27 H           5.4031   -0.9711    0.6587 H       1  UNL1        0.0658
     28 H           4.7535   -1.4897   -1.9938 H       1  UNL1        0.0830
     29 H           3.0917   -3.1946   -2.7981 H       1  UNL1        0.1882
     30 H           1.3398   -0.7244    1.2685 H       1  UNL1        0.0380
     31 H          -0.0097   -2.8640    0.8799 H       1  UNL1        0.0287
     32 H          -0.5279   -2.3781   -0.6404 H       1  UNL1        0.0287
     33 H          -1.1706   -1.0271    2.0503 H       1  UNL1        0.0465
     34 H          -2.3445   -1.6813    1.0300 H       1  UNL1        0.0465
     35 H          -3.7619    0.3356    1.2619 H       1  UNL1        0.0394
     36 H          -4.5616    2.1408   -1.0930 H       1  UNL1        0.0272
     37 H          -4.5635    2.6475    0.5190 H       1  UNL1        0.0272
     38 H          -6.7987    1.5897   -0.6148 H       1  UNL1        0.0265
     39 H          -6.4874    1.2715    1.0474 H       1  UNL1        0.0265
     40 H          -6.5568   -0.6082   -1.0747 H       1  UNL1        0.0265
     41 H          -6.1364   -0.9536    0.5529 H       1  UNL1        0.0265
     42 H          -4.0559   -1.4153   -0.5227 H       1  UNL1        0.0272
     43 H          -4.2645   -0.2783   -1.7460 H       1  UNL1        0.0272
     44 H           0.1511    0.3991   -1.1628 H       1  UNL1        0.0471
     45 H           0.4229    1.1694    0.3594 H       1  UNL1        0.0471
     46 H           2.4294    1.6687   -0.4893 H       1  UNL1        0.0639
     47 H           3.6154    3.4730    0.6254 H       1  UNL1        0.0830
@<TRIPOS>BOND
     1     1     2    1
     2     2     3   ar
     3     2    24   ar
     4     3     4   ar
     5     4     5    1
     6     4    22   ar
     7     5     6   ar
     8     5     9   ar
     9     6     7   ar
    10     7     8   ar
    11     8     9   ar
    12     9    10    1
    13    10    11    1
    14    10    21    1
    15    11    12    1
    16    12    13    1
    17    13    14   am
    18    13    21    1
    19    14    15    2
    20    14    16    1
    21    16    17    1
    22    16    20    1
    23    17    18    1
    24    18    19    1
    25    19    20    1
    26    22    23   ar
    27    23    24   ar
    28     1    25    1
    29     1    26    1
    30     3    27    1
    31     6    28    1
    32     7    29    1
    33    10    30    1
    34    11    31    1
    35    11    32    1
    36    12    33    1
    37    12    34    1
    38    16    35    1
    39    17    36    1
    40    17    37    1
    41    18    38    1
    42    18    39    1
    43    19    40    1
    44    19    41    1
    45    20    42    1
    46    20    43    1
    47    21    44    1
    48    21    45    1
    49    22    46    1
    50    23    47    1
@<TRIPOS>MOLECULE
../data/bude_mols_rdkit_confs2/molecule_6.pdb
 47 50 0 0 0
SMALL
GASTEIGER

@<TRIPOS>ATOM
      1  N1         7.0270   -0.4310    1.5910 N.pl3   1  UNL1       -0.3431
      2  C1         5.9790   -0.3190    0.6110 C.ar    1  UNL1        0.1167
      3  C2         4.6770   -0.5410    0.9170 C.ar    1  UNL1       -0.0143
      4  C3         3.5960   -0.4310    0.0100 C.ar    1  UNL1       -0.0100
      5  C4         2.2500   -0.5470    0.5390 C.ar    1  UNL1        0.0230
      6  C5         1.9420   -1.0110    1.8080 C.ar    1  UNL1        0.0303
      7  N2         0.6590   -0.7690    2.0830 N.ar    1  UNL1       -0.2839
      8  N3         0.1180   -0.1620    1.0340 N.ar    1  UNL1       -0.1779
      9  C6         1.0650   -0.0060    0.0430 C.ar    1  UNL1        0.0751
     10  C7         0.8290    0.3380   -1.3480 C.3     1  UNL1        0.0208
     11  C8         0.4240    1.6850   -1.7850 C.3     1  UNL1       -0.0274
     12  C9        -0.6550    2.0850   -0.8850 C.3     1  UNL1        0.0153
     13  N4        -1.4850    0.8630   -0.9280 N.am    1  UNL1       -0.3006
     14  C10       -2.8170    0.9080   -0.4940 C.2     1  UNL1        0.2187
     15  O1        -3.3160    2.0110   -0.0810 O.2     1  UNL1       -0.2753
     16  C11       -3.7120   -0.2530   -0.4750 C.3     1  UNL1        0.0358
     17  C12       -3.4870   -1.1010    0.7390 C.3     1  UNL1       -0.0419
     18  C13       -4.8380   -1.3790    1.3240 C.3     1  UNL1       -0.0523
     19  C14       -5.6620   -0.1890    0.9290 C.3     1  UNL1       -0.0523
     20  C15       -5.1600    0.1050   -0.5000 C.3     1  UNL1       -0.0419
     21  C16       -0.7260   -0.2180   -1.4980 C.3     1  UNL1        0.0230
     22  C17        3.9680   -0.0710   -1.2500 C.ar    1  UNL1       -0.0356
     23  C18        5.2980    0.1560   -1.5610 C.ar    1  UNL1        0.0302
     24  N5         6.3020    0.0380   -0.6600 N.ar    1  UNL1       -0.2407
     25 H           6.8103   -0.6885    2.5162 H       1  UNL1        0.1437
     26 H           7.9606   -0.2501    1.3362 H       1  UNL1        0.1437
     27 H           4.4567   -0.8116    1.8882 H       1  UNL1        0.0658
     28 H           2.6070   -1.4753    2.4462 H       1  UNL1        0.0830
     29 H           0.1941   -1.0006    2.9193 H       1  UNL1        0.1882
     30 H           1.7328    0.0434   -1.8391 H       1  UNL1        0.0380
     31 H           0.0761    1.6601   -2.7966 H       1  UNL1        0.0287
     32 H           1.2422    2.3737   -1.7512 H       1  UNL1        0.0287
     33 H          -1.1845    2.9387   -1.2534 H       1  UNL1        0.0465
     34 H          -0.3408    2.3843    0.0931 H       1  UNL1        0.0465
     35 H          -3.4713   -0.7871   -1.3704 H       1  UNL1        0.0394
     36 H          -2.8787   -0.5779    1.4470 H       1  UNL1        0.0272
     37 H          -2.9817   -2.0097    0.4864 H       1  UNL1        0.0272
     38 H          -4.7802   -1.4639    2.3891 H       1  UNL1        0.0265
     39 H          -5.2545   -2.3004    0.9740 H       1  UNL1        0.0265
     40 H          -5.4811    0.6402    1.5807 H       1  UNL1        0.0265
     41 H          -6.7163   -0.3631    0.9834 H       1  UNL1        0.0265
     42 H          -5.6844   -0.4943   -1.2147 H       1  UNL1        0.0272
     43 H          -5.3197    1.1245   -0.7830 H       1  UNL1        0.0272
     44 H          -0.8693   -1.1255   -0.9495 H       1  UNL1        0.0471
     45 H          -1.0039   -0.4580   -2.5030 H       1  UNL1        0.0471
     46 H           3.2488    0.0340   -1.9827 H       1  UNL1        0.0639
     47 H           5.5360    0.4287   -2.5275 H       1  UNL1        0.0830
@<TRIPOS>BOND
     1     1     2    1
     2     2     3   ar
     3     2    24   ar
     4     3     4   ar
     5     4     5    1
     6     4    22   ar
     7     5     6   ar
     8     5     9   ar
     9     6     7   ar
    10     7     8   ar
    11     8     9   ar
    12     9    10    1
    13    10    11    1
    14    10    21    1
    15    11    12    1
    16    12    13    1
    17    13    14   am
    18    13    21    1
    19    14    15    2
    20    14    16    1
    21    16    17    1
    22    16    20    1
    23    17    18    1
    24    18    19    1
    25    19    20    1
    26    22    23   ar
    27    23    24   ar
    28     1    25    1
    29     1    26    1
    30     3    27    1
    31     6    28    1
    32     7    29    1
    33    10    30    1
    34    11    31    1
    35    11    32    1
    36    12    33    1
    37    12    34    1
    38    16    35    1
    39    17    36    1
    40    17    37    1
    41    18    38    1
    42    18    39    1
    43    19    40    1
    44    19    41    1
    45    20    42    1
    46    20    43    1
    47    21    44    1
    48    21    45    1
    49    22    46    1
    50    23    47    1
@<TRIPOS>MOLECULE
../data/bude_mols_rdkit_confs2/molecule_6.pdb
 47 50 0 0 0
SMALL
GASTEIGER

@<TRIPOS>ATOM
      1  N1        -7.0850   -0.1110   -2.1910 N.pl3   1  UNL1       -0.3431
      2  C1        -5.9770   -0.4050   -1.4080 C.ar    1  UNL1        0.1167
      3  C2        -5.0040    0.5280   -0.9980 C.ar    1  UNL1       -0.0143
      4  C3        -3.9920    0.1370   -0.2100 C.ar    1  UNL1       -0.0100
      5  C4        -3.0070    1.0780    0.3590 C.ar    1  UNL1        0.0230
      6  C5        -3.1970    2.2350    1.0810 C.ar    1  UNL1        0.0303
      7  N2        -2.0150    2.6690    1.5730 N.ar    1  UNL1       -0.2839
      8  N3        -1.1150    1.8130    1.1650 N.ar    1  UNL1       -0.1779
      9  C6        -1.6310    0.8200    0.4210 C.ar    1  UNL1        0.0751
     10  C7        -0.8510   -0.1400   -0.3750 C.3     1  UNL1        0.0208
     11  C8        -0.0310   -1.1380    0.3600 C.3     1  UNL1       -0.0274
     12  C9         1.0890   -0.3900    0.9550 C.3     1  UNL1        0.0153
     13  N4         1.5050    0.4310   -0.1830 N.am    1  UNL1       -0.3006
     14  C10        2.8810    0.7710   -0.3540 C.2     1  UNL1        0.2187
     15  O1         3.2440    1.5360   -1.2270 O.2     1  UNL1       -0.2753
     16  C11        3.9190    0.1530    0.5550 C.3     1  UNL1        0.0358
     17  C12        5.2270    0.8410    0.5500 C.3     1  UNL1       -0.0419
     18  C13        6.2590   -0.2240    0.3490 C.3     1  UNL1       -0.0523
     19  C14        5.5220   -1.2900   -0.4770 C.3     1  UNL1       -0.0523
     20  C15        4.1550   -1.2870    0.1300 C.3     1  UNL1       -0.0419
     21  C16        0.3460    0.7230   -0.9570 C.3     1  UNL1        0.0230
     22  C17       -3.9040   -1.1930    0.1890 C.ar    1  UNL1       -0.0356
     23  C18       -4.8400   -2.1070   -0.2040 C.ar    1  UNL1        0.0302
     24  N5        -5.8330   -1.6610   -0.9870 N.ar    1  UNL1       -0.2407
     25 H          -7.2254    0.8059   -2.5208 H       1  UNL1        0.1437
     26 H          -7.7304   -0.8194   -2.4165 H       1  UNL1        0.1437
     27 H          -5.0702    1.5114   -1.3039 H       1  UNL1        0.0658
     28 H          -4.1063    2.7014    1.2251 H       1  UNL1        0.0830
     29 H          -1.8627    3.4685    2.1269 H       1  UNL1        0.1882
     30 H          -1.5723   -0.6281   -0.9966 H       1  UNL1        0.0380
     31 H           0.3370   -1.8840   -0.3131 H       1  UNL1        0.0287
     32 H          -0.6066   -1.6403    1.1092 H       1  UNL1        0.0287
     33 H           1.8727   -1.0438    1.2764 H       1  UNL1        0.0465
     34 H           0.8340    0.1660    1.8329 H       1  UNL1        0.0465
     35 H           3.5228    0.2350    1.5455 H       1  UNL1        0.0394
     36 H           5.3867    1.3408    1.4826 H       1  UNL1        0.0272
     37 H           5.2752    1.5808   -0.2216 H       1  UNL1        0.0272
     38 H           6.5829   -0.6240    1.2871 H       1  UNL1        0.0265
     39 H           7.1423    0.1388   -0.1337 H       1  UNL1        0.0265
     40 H           5.9878   -2.2479   -0.3747 H       1  UNL1        0.0265
     41 H           5.5211   -1.0882   -1.5278 H       1  UNL1        0.0265
     42 H           3.4233   -1.5921   -0.5886 H       1  UNL1        0.0272
     43 H           4.0779   -1.9674    0.9522 H       1  UNL1        0.0272
     44 H           0.1128    1.7648   -0.8856 H       1  UNL1        0.0471
     45 H           0.5132    0.4863   -1.9870 H       1  UNL1        0.0471
     46 H          -3.1207   -1.4931    0.7902 H       1  UNL1        0.0639
     47 H          -4.7854   -3.0953    0.0882 H       1  UNL1        0.0830
@<TRIPOS>BOND
     1     1     2    1
     2     2     3   ar
     3     2    24   ar
     4     3     4   ar
     5     4     5    1
     6     4    22   ar
     7     5     6   ar
     8     5     9   ar
     9     6     7   ar
    10     7     8   ar
    11     8     9   ar
    12     9    10    1
    13    10    11    1
    14    10    21    1
    15    11    12    1
    16    12    13    1
    17    13    14   am
    18    13    21    1
    19    14    15    2
    20    14    16    1
    21    16    17    1
    22    16    20    1
    23    17    18    1
    24    18    19    1
    25    19    20    1
    26    22    23   ar
    27    23    24   ar
    28     1    25    1
    29     1    26    1
    30     3    27    1
    31     6    28    1
    32     7    29    1
    33    10    30    1
    34    11    31    1
    35    11    32    1
    36    12    33    1
    37    12    34    1
    38    16    35    1
    39    17    36    1
    40    17    37    1
    41    18    38    1
    42    18    39    1
    43    19    40    1
    44    19    41    1
    45    20    42    1
    46    20    43    1
    47    21    44    1
    48    21    45    1
    49    22    46    1
    50    23    47    1
@<TRIPOS>MOLECULE
../data/bude_mols_rdkit_confs2/molecule_6.pdb
 47 50 0 0 0
SMALL
GASTEIGER

@<TRIPOS>ATOM
      1  N1        -4.1870    1.7360    2.5540 N.pl3   1  UNL1       -0.3431
      2  C1        -3.9850    0.4420    2.0550 C.ar    1  UNL1        0.1167
      3  C2        -3.6100    0.2530    0.7420 C.ar    1  UNL1       -0.0143
      4  C3        -3.3990   -0.9920    0.2080 C.ar    1  UNL1       -0.0100
      5  C4        -2.9940   -1.2500   -1.1610 C.ar    1  UNL1        0.0230
      6  C5        -3.6450   -2.1860   -1.9710 C.ar    1  UNL1        0.0303
      7  N2        -3.0000   -2.1430   -3.1440 N.ar    1  UNL1       -0.2839
      8  N3        -2.0130   -1.2490   -3.0870 N.ar    1  UNL1       -0.1779
      9  C6        -1.9790   -0.6680   -1.8550 C.ar    1  UNL1        0.0751
     10  C7        -1.0470    0.3680   -1.3730 C.3     1  UNL1        0.0208
     11  C8         0.0350    0.5790   -2.4370 C.3     1  UNL1       -0.0274
     12  C9         1.2740    0.1180   -1.7610 C.3     1  UNL1        0.0153
     13  N4         1.0460    0.3790   -0.3670 N.am    1  UNL1       -0.3006
     14  C10        1.9760    0.9300    0.5340 C.2     1  UNL1        0.2187
     15  O1         1.6410    1.1100    1.7440 O.2     1  UNL1       -0.2753
     16  C11        3.3500    1.3210    0.1440 C.3     1  UNL1        0.0358
     17  C12        4.0600    1.9050    1.3170 C.3     1  UNL1       -0.0419
     18  C13        4.9810    0.8020    1.7870 C.3     1  UNL1       -0.0523
     19  C14        5.1720   -0.1150    0.6190 C.3     1  UNL1       -0.0523
     20  C15        4.0800    0.1300   -0.3640 C.3     1  UNL1       -0.0419
     21  C16       -0.3190   -0.0430   -0.1180 C.3     1  UNL1        0.0230
     22  C17       -3.5880   -2.0760    1.0760 C.ar    1  UNL1       -0.0356
     23  C18       -3.9600   -1.8760    2.3760 C.ar    1  UNL1        0.0302
     24  N5        -4.1510   -0.6350    2.8420 N.ar    1  UNL1       -0.2407
     25 H          -4.0617    2.5155    1.9659 H       1  UNL1        0.1437
     26 H          -4.4542    1.8655    3.4927 H       1  UNL1        0.1437
     27 H          -3.4833    1.0801    0.1380 H       1  UNL1        0.0658
     28 H          -4.4493   -2.7816   -1.7191 H       1  UNL1        0.0830
     29 H          -3.2220   -2.6905   -3.9315 H       1  UNL1        0.1882
     30 H          -1.6293    1.2436   -1.1753 H       1  UNL1        0.0380
     31 H           0.1084    1.6111   -2.7095 H       1  UNL1        0.0287
     32 H          -0.1652    0.0538   -3.3475 H       1  UNL1        0.0287
     33 H           2.1227    0.6658   -2.1138 H       1  UNL1        0.0465
     34 H           1.4796   -0.9146   -1.9517 H       1  UNL1        0.0465
     35 H           3.3066    2.0575   -0.6310 H       1  UNL1        0.0394
     36 H           3.3652    2.1714    2.0859 H       1  UNL1        0.0272
     37 H           4.5902    2.8005    1.0682 H       1  UNL1        0.0272
     38 H           4.5376    0.2728    2.6045 H       1  UNL1        0.0265
     39 H           5.9156    1.1958    2.1281 H       1  UNL1        0.0265
     40 H           5.1370   -1.1319    0.9501 H       1  UNL1        0.0265
     41 H           6.1219    0.0694    0.1622 H       1  UNL1        0.0265
     42 H           4.4868    0.3261   -1.3340 H       1  UNL1        0.0272
     43 H           3.4360   -0.7188   -0.4625 H       1  UNL1        0.0272
     44 H          -0.3720   -1.1020    0.0259 H       1  UNL1        0.0471
     45 H          -0.7352    0.3908    0.7671 H       1  UNL1        0.0471
     46 H          -3.4445   -3.0374    0.7293 H       1  UNL1        0.0639
     47 H          -4.0944   -2.6856    3.0018 H       1  UNL1        0.0830
@<TRIPOS>BOND
     1     1     2    1
     2     2     3   ar
     3     2    24   ar
     4     3     4   ar
     5     4     5    1
     6     4    22   ar
     7     5     6   ar
     8     5     9   ar
     9     6     7   ar
    10     7     8   ar
    11     8     9   ar
    12     9    10    1
    13    10    11    1
    14    10    21    1
    15    11    12    1
    16    12    13    1
    17    13    14   am
    18    13    21    1
    19    14    15    2
    20    14    16    1
    21    16    17    1
    22    16    20    1
    23    17    18    1
    24    18    19    1
    25    19    20    1
    26    22    23   ar
    27    23    24   ar
    28     1    25    1
    29     1    26    1
    30     3    27    1
    31     6    28    1
    32     7    29    1
    33    10    30    1
    34    11    31    1
    35    11    32    1
    36    12    33    1
    37    12    34    1
    38    16    35    1
    39    17    36    1
    40    17    37    1
    41    18    38    1
    42    18    39    1
    43    19    40    1
    44    19    41    1
    45    20    42    1
    46    20    43    1
    47    21    44    1
    48    21    45    1
    49    22    46    1
    50    23    47    1
@<TRIPOS>MOLECULE
../data/bude_mols_rdkit_confs2/molecule_6.pdb
 47 50 0 0 0
SMALL
GASTEIGER

@<TRIPOS>ATOM
      1  N1         5.5740   -0.2480    2.7710 N.pl3   1  UNL1       -0.3431
      2  C1         4.9570   -0.7110    1.5730 C.ar    1  UNL1        0.1167
      3  C2         4.2440    0.0970    0.7300 C.ar    1  UNL1       -0.0143
      4  C3         3.6630   -0.3290   -0.4250 C.ar    1  UNL1       -0.0100
      5  C4         2.8310    0.4160   -1.3480 C.ar    1  UNL1        0.0230
      6  C5         3.1470    0.6480   -2.6830 C.ar    1  UNL1        0.0303
      7  N2         2.0880    1.2540   -3.2400 N.ar    1  UNL1       -0.2839
      8  N3         1.1160    1.4260   -2.3450 N.ar    1  UNL1       -0.1779
      9  C6         1.5580    0.9190   -1.1750 C.ar    1  UNL1        0.0751
     10  C7         0.8350    1.0040    0.1090 C.3     1  UNL1        0.0208
     11  C8         0.0740   -0.3050    0.2400 C.3     1  UNL1       -0.0274
     12  C9        -1.1490    0.1220    1.0150 C.3     1  UNL1        0.0153
     13  N4        -1.5490    1.2880    0.2540 N.am    1  UNL1       -0.3006
     14  C10       -2.8290    1.6630   -0.2000 C.2     1  UNL1        0.2187
     15  O1        -3.0340    2.7750   -0.7700 O.2     1  UNL1       -0.2753
     16  C11       -3.9970    0.7780   -0.0410 C.3     1  UNL1        0.0358
     17  C12       -4.2530    0.1970    1.3030 C.3     1  UNL1       -0.0419
     18  C13       -4.6670   -1.2680    1.0860 C.3     1  UNL1       -0.0523
     19  C14       -4.9910   -1.3340   -0.3620 C.3     1  UNL1       -0.0523
     20  C15       -4.0050   -0.3890   -1.0070 C.3     1  UNL1       -0.0419
     21  C16       -0.3130    2.0010   -0.0070 C.3     1  UNL1        0.0230
     22  C17        3.8360   -1.7000   -0.7340 C.ar    1  UNL1       -0.0356
     23  C18        4.5450   -2.5070    0.0990 C.ar    1  UNL1        0.0302
     24  N5         5.0940   -2.0320    1.2260 N.ar    1  UNL1       -0.2407
     25 H           5.4869    0.6960    3.0365 H       1  UNL1        0.1437
     26 H           6.0874   -0.8721    3.3333 H       1  UNL1        0.1437
     27 H           4.1402    1.0914    0.9857 H       1  UNL1        0.0658
     28 H           4.0303    0.4003   -3.1558 H       1  UNL1        0.0830
     29 H           2.0359    1.5338   -4.1825 H       1  UNL1        0.1882
     30 H           1.5274    1.2443    0.8885 H       1  UNL1        0.0380
     31 H           0.6423   -1.0332    0.7800 H       1  UNL1        0.0287
     32 H          -0.1489   -0.7711   -0.6970 H       1  UNL1        0.0287
     33 H          -0.9078    0.3740    2.0265 H       1  UNL1        0.0465
     34 H          -1.9038   -0.6307    1.1078 H       1  UNL1        0.0465
     35 H          -4.7736    1.4863   -0.2414 H       1  UNL1        0.0394
     36 H          -5.0397    0.7330    1.7916 H       1  UNL1        0.0272
     37 H          -3.3810    0.2608    1.9198 H       1  UNL1        0.0272
     38 H          -5.5225   -1.5143    1.6796 H       1  UNL1        0.0265
     39 H          -3.9027   -1.9605    1.3709 H       1  UNL1        0.0265
     40 H          -5.9961   -1.0135   -0.5408 H       1  UNL1        0.0265
     41 H          -4.9209   -2.3278   -0.7523 H       1  UNL1        0.0265
     42 H          -3.0352   -0.8345   -1.0846 H       1  UNL1        0.0272
     43 H          -4.2660   -0.1150   -2.0078 H       1  UNL1        0.0272
     44 H          -0.3346    2.4179   -0.9922 H       1  UNL1        0.0471
     45 H          -0.1869    2.7988    0.6948 H       1  UNL1        0.0471
     46 H           3.4218   -2.0884   -1.5958 H       1  UNL1        0.0639
     47 H           4.6628   -3.5039   -0.1406 H       1  UNL1        0.0830
@<TRIPOS>BOND
     1     1     2    1
     2     2     3   ar
     3     2    24   ar
     4     3     4   ar
     5     4     5    1
     6     4    22   ar
     7     5     6   ar
     8     5     9   ar
     9     6     7   ar
    10     7     8   ar
    11     8     9   ar
    12     9    10    1
    13    10    11    1
    14    10    21    1
    15    11    12    1
    16    12    13    1
    17    13    14   am
    18    13    21    1
    19    14    15    2
    20    14    16    1
    21    16    17    1
    22    16    20    1
    23    17    18    1
    24    18    19    1
    25    19    20    1
    26    22    23   ar
    27    23    24   ar
    28     1    25    1
    29     1    26    1
    30     3    27    1
    31     6    28    1
    32     7    29    1
    33    10    30    1
    34    11    31    1
    35    11    32    1
    36    12    33    1
    37    12    34    1
    38    16    35    1
    39    17    36    1
    40    17    37    1
    41    18    38    1
    42    18    39    1
    43    19    40    1
    44    19    41    1
    45    20    42    1
    46    20    43    1
    47    21    44    1
    48    21    45    1
    49    22    46    1
    50    23    47    1
@<TRIPOS>MOLECULE
../data/bude_mols_rdkit_confs2/molecule_6.pdb
 47 50 0 0 0
SMALL
GASTEIGER

@<TRIPOS>ATOM
      1  N1        -5.0010    2.6800   -1.1270 N.pl3   1  UNL1       -0.3431
      2  C1        -4.6340    1.6930   -0.1780 C.ar    1  UNL1        0.1167
      3  C2        -3.8600    0.6000   -0.5390 C.ar    1  UNL1       -0.0143
      4  C3        -3.5180   -0.3410    0.3970 C.ar    1  UNL1       -0.0100
      5  C4        -2.7130   -1.5090    0.1280 C.ar    1  UNL1        0.0230
      6  C5        -2.9790   -2.8290    0.4990 C.ar    1  UNL1        0.0303
      7  N2        -2.0030   -3.6100    0.0660 N.ar    1  UNL1       -0.2839
      8  N3        -1.1460   -2.8360   -0.5540 N.ar    1  UNL1       -0.1779
      9  C6        -1.5140   -1.5440   -0.5560 C.ar    1  UNL1        0.0751
     10  C7        -0.7520   -0.4460   -1.1750 C.3     1  UNL1        0.0208
     11  C8         0.5780   -1.0270   -1.6520 C.3     1  UNL1       -0.0274
     12  C9         1.3560   -0.9070   -0.3300 C.3     1  UNL1        0.0153
     13  N4         1.1320    0.5000   -0.0600 N.am    1  UNL1       -0.3006
     14  C10        1.9800    1.5640    0.2340 C.2     1  UNL1        0.2187
     15  O1         1.4750    2.7150    0.4310 O.2     1  UNL1       -0.2753
     16  C11        3.4600    1.4700    0.3400 C.3     1  UNL1        0.0358
     17  C12        3.7600    0.4540    1.3890 C.3     1  UNL1       -0.0419
     18  C13        4.8630   -0.4010    0.8870 C.3     1  UNL1       -0.0523
     19  C14        5.2400    0.0840   -0.4570 C.3     1  UNL1       -0.0523
     20  C15        4.1100    0.9710   -0.8940 C.3     1  UNL1       -0.0419
     21  C16       -0.3310    0.6100   -0.1670 C.3     1  UNL1        0.0230
     22  C17       -3.9790   -0.1330    1.6790 C.ar    1  UNL1       -0.0356
     23  C18       -4.7510    0.9720    2.0100 C.ar    1  UNL1        0.0302
     24  N5        -5.0690    1.8690    1.0820 N.ar    1  UNL1       -0.2407
     25 H          -4.7071    2.5964   -2.0629 H       1  UNL1        0.1437
     26 H          -5.5498    3.4491   -0.8502 H       1  UNL1        0.1437
     27 H          -3.5409    0.4951   -1.5148 H       1  UNL1        0.0658
     28 H          -3.8068   -3.1453    1.0278 H       1  UNL1        0.0830
     29 H          -1.9337   -4.5847    0.1863 H       1  UNL1        0.1882
     30 H          -1.3734   -0.0214   -1.9356 H       1  UNL1        0.0380
     31 H           1.0170   -0.4436   -2.4342 H       1  UNL1        0.0287
     32 H           0.5337   -2.0060   -2.0816 H       1  UNL1        0.0287
     33 H           2.3949   -1.1309   -0.4544 H       1  UNL1        0.0465
     34 H           1.0506   -1.5780    0.4455 H       1  UNL1        0.0465
     35 H           3.8261    2.4539    0.5468 H       1  UNL1        0.0394
     36 H           2.8923   -0.1434    1.5763 H       1  UNL1        0.0272
     37 H           4.0431    0.9321    2.3034 H       1  UNL1        0.0272
     38 H           4.5361   -1.4181    0.8277 H       1  UNL1        0.0265
     39 H           5.7022   -0.3525    1.5490 H       1  UNL1        0.0265
     40 H           5.3536   -0.7376   -1.1330 H       1  UNL1        0.0265
     41 H           6.1733    0.6072   -0.4433 H       1  UNL1        0.0265
     42 H           4.4859    1.7905   -1.4702 H       1  UNL1        0.0272
     43 H           3.4147    0.4357   -1.5062 H       1  UNL1        0.0272
     44 H          -0.7892    0.4234    0.7817 H       1  UNL1        0.0471
     45 H          -0.6312    1.5900   -0.4742 H       1  UNL1        0.0471
     46 H          -3.7435   -0.8183    2.4138 H       1  UNL1        0.0639
     47 H          -5.0794    1.0976    2.9803 H       1  UNL1        0.0830
@<TRIPOS>BOND
     1     1     2    1
     2     2     3   ar
     3     2    24   ar
     4     3     4   ar
     5     4     5    1
     6     4    22   ar
     7     5     6   ar
     8     5     9   ar
     9     6     7   ar
    10     7     8   ar
    11     8     9   ar
    12     9    10    1
    13    10    11    1
    14    10    21    1
    15    11    12    1
    16    12    13    1
    17    13    14   am
    18    13    21    1
    19    14    15    2
    20    14    16    1
    21    16    17    1
    22    16    20    1
    23    17    18    1
    24    18    19    1
    25    19    20    1
    26    22    23   ar
    27    23    24   ar
    28     1    25    1
    29     1    26    1
    30     3    27    1
    31     6    28    1
    32     7    29    1
    33    10    30    1
    34    11    31    1
    35    11    32    1
    36    12    33    1
    37    12    34    1
    38    16    35    1
    39    17    36    1
    40    17    37    1
    41    18    38    1
    42    18    39    1
    43    19    40    1
    44    19    41    1
    45    20    42    1
    46    20    43    1
    47    21    44    1
    48    21    45    1
    49    22    46    1
    50    23    47    1
@<TRIPOS>MOLECULE
../data/bude_mols_rdkit_confs2/molecule_6.pdb
 47 50 0 0 0
SMALL
GASTEIGER

@<TRIPOS>ATOM
      1  N1         5.7940    3.1210    1.6980 N.pl3   1  UNL1       -0.3431
      2  C1         4.9320    2.3560    0.8720 C.ar    1  UNL1        0.1167
      3  C2         4.5250    1.0640    1.1810 C.ar    1  UNL1       -0.0143
      4  C3         3.6860    0.3530    0.3520 C.ar    1  UNL1       -0.0100
      5  C4         3.3150   -0.9920    0.6720 C.ar    1  UNL1        0.0230
      6  C5         4.2630   -2.0310    0.7860 C.ar    1  UNL1        0.0303
      7  N2         3.5910   -3.1250    1.0640 N.ar    1  UNL1       -0.2839
      8  N3         2.3190   -2.8520    1.1310 N.ar    1  UNL1       -0.1779
      9  C6         2.1040   -1.5290    0.8920 C.ar    1  UNL1        0.0751
     10  C7         0.7480   -0.9530    0.9300 C.3     1  UNL1        0.0208
     11  C8        -0.2580   -1.9440    1.4520 C.3     1  UNL1       -0.0274
     12  C9        -1.5630   -1.4760    0.8880 C.3     1  UNL1        0.0153
     13  N4        -1.2640   -0.4230   -0.0490 N.am    1  UNL1       -0.3006
     14  C10       -2.2240    0.4800   -0.5830 C.2     1  UNL1        0.2187
     15  O1        -1.7830    1.3530   -1.4050 O.2     1  UNL1       -0.2753
     16  C11       -3.6490    0.4310   -0.2260 C.3     1  UNL1        0.0358
     17  C12       -4.3710    1.5460   -0.9680 C.3     1  UNL1       -0.0419
     18  C13       -5.8040    1.0890   -1.1130 C.3     1  UNL1       -0.0523
     19  C14       -5.7520   -0.4150   -1.1120 C.3     1  UNL1       -0.0523
     20  C15       -4.3340   -0.8080   -0.7830 C.3     1  UNL1       -0.0419
     21  C16        0.1780   -0.4650   -0.3320 C.3     1  UNL1        0.0230
     22  C17        3.2680    0.9680   -0.7890 C.ar    1  UNL1       -0.0356
     23  C18        3.6720    2.2730   -1.1110 C.ar    1  UNL1        0.0302
     24  N5         4.4970    2.9400   -0.2720 N.ar    1  UNL1       -0.2407
     25 H           6.1360    2.7400    2.5389 H       1  UNL1        0.1437
     26 H           6.0505    4.0331    1.4306 H       1  UNL1        0.1437
     27 H           4.8598    0.6262    2.0535 H       1  UNL1        0.0658
     28 H           5.2854   -1.9476    0.6730 H       1  UNL1        0.0830
     29 H           3.9881   -4.0154    1.2008 H       1  UNL1        0.1882
     30 H           0.9089   -0.1073    1.5655 H       1  UNL1        0.0380
     31 H          -0.2814   -1.9330    2.5217 H       1  UNL1        0.0287
     32 H          -0.0268   -2.9497    1.1690 H       1  UNL1        0.0287
     33 H          -2.1895   -1.1037    1.6715 H       1  UNL1        0.0465
     34 H          -2.0809   -2.2793    0.4070 H       1  UNL1        0.0465
     35 H          -3.6925    0.4780    0.8421 H       1  UNL1        0.0394
     36 H          -3.9300    1.6983   -1.9309 H       1  UNL1        0.0272
     37 H          -4.3069    2.4743   -0.4397 H       1  UNL1        0.0272
     38 H          -6.2191    1.4476   -2.0317 H       1  UNL1        0.0265
     39 H          -6.4207    1.4641   -0.3231 H       1  UNL1        0.0265
     40 H          -6.0236   -0.7925   -2.0757 H       1  UNL1        0.0265
     41 H          -6.4359   -0.8198   -0.3956 H       1  UNL1        0.0265
     42 H          -4.3291   -1.5904   -0.0532 H       1  UNL1        0.0272
     43 H          -3.8252   -1.1682   -1.6526 H       1  UNL1        0.0272
     44 H           0.3927   -1.1372   -1.1363 H       1  UNL1        0.0471
     45 H           0.5757    0.4805   -0.6367 H       1  UNL1        0.0471
     46 H           2.6391    0.4623   -1.4323 H       1  UNL1        0.0639
     47 H           3.3423    2.7200   -1.9808 H       1  UNL1        0.0830
@<TRIPOS>BOND
     1     1     2    1
     2     2     3   ar
     3     2    24   ar
     4     3     4   ar
     5     4     5    1
     6     4    22   ar
     7     5     6   ar
     8     5     9   ar
     9     6     7   ar
    10     7     8   ar
    11     8     9   ar
    12     9    10    1
    13    10    11    1
    14    10    21    1
    15    11    12    1
    16    12    13    1
    17    13    14   am
    18    13    21    1
    19    14    15    2
    20    14    16    1
    21    16    17    1
    22    16    20    1
    23    17    18    1
    24    18    19    1
    25    19    20    1
    26    22    23   ar
    27    23    24   ar
    28     1    25    1
    29     1    26    1
    30     3    27    1
    31     6    28    1
    32     7    29    1
    33    10    30    1
    34    11    31    1
    35    11    32    1
    36    12    33    1
    37    12    34    1
    38    16    35    1
    39    17    36    1
    40    17    37    1
    41    18    38    1
    42    18    39    1
    43    19    40    1
    44    19    41    1
    45    20    42    1
    46    20    43    1
    47    21    44    1
    48    21    45    1
    49    22    46    1
    50    23    47    1
@<TRIPOS>MOLECULE
../data/bude_mols_rdkit_confs2/molecule_6.pdb
 47 50 0 0 0
SMALL
GASTEIGER

@<TRIPOS>ATOM
      1  N1         6.7460    1.8180    0.3740 N.pl3   1  UNL1       -0.3431
      2  C1         5.6800    1.2030   -0.3350 C.ar    1  UNL1        0.1167
      3  C2         4.9360    0.1660    0.1780 C.ar    1  UNL1       -0.0143
      4  C3         3.8510   -0.4430   -0.4480 C.ar    1  UNL1       -0.0100
      5  C4         3.1150   -1.4870    0.2520 C.ar    1  UNL1        0.0230
      6  C5         3.5620   -2.6370    0.8290 C.ar    1  UNL1        0.0303
      7  N2         2.5370   -3.2240    1.5160 N.ar    1  UNL1       -0.2839
      8  N3         1.4920   -2.4340    1.3490 N.ar    1  UNL1       -0.1779
      9  C6         1.7970   -1.3560    0.5810 C.ar    1  UNL1        0.0751
     10  C7         0.8280   -0.3960    0.0710 C.3     1  UNL1        0.0208
     11  C8         0.2260    0.4020    1.2620 C.3     1  UNL1       -0.0274
     12  C9        -0.9910    0.9870    0.5160 C.3     1  UNL1        0.0153
     13  N4        -1.5580   -0.1610   -0.1350 N.am    1  UNL1       -0.3006
     14  C10       -2.8270   -0.2670   -0.6950 C.2     1  UNL1        0.2187
     15  O1        -3.1170   -1.4140   -1.2220 O.2     1  UNL1       -0.2753
     16  C11       -3.8240    0.8020   -0.7330 C.3     1  UNL1        0.0358
     17  C12       -4.1990    1.2340    0.6440 C.3     1  UNL1       -0.0419
     18  C13       -5.5860    0.6460    0.9080 C.3     1  UNL1       -0.0523
     19  C14       -5.8590   -0.2820   -0.2460 C.3     1  UNL1       -0.0523
     20  C15       -5.1550    0.4290   -1.3960 C.3     1  UNL1       -0.0419
     21  C16       -0.5170   -1.2010   -0.1510 C.3     1  UNL1        0.0230
     22  C17        3.5200    0.0480   -1.6810 C.ar    1  UNL1       -0.0356
     23  C18        4.2620    1.1070   -2.2320 C.ar    1  UNL1        0.0302
     24  N5         5.2900    1.6390   -1.5610 N.ar    1  UNL1       -0.2407
     25 H           7.0066    1.4802    1.2612 H       1  UNL1        0.1437
     26 H           7.2243    2.5821   -0.0218 H       1  UNL1        0.1437
     27 H           5.2052   -0.1920    1.1077 H       1  UNL1        0.0658
     28 H           4.5230   -3.0066    0.7585 H       1  UNL1        0.0830
     29 H           2.5706   -4.0632    2.0297 H       1  UNL1        0.1882
     30 H           1.2959    0.1400   -0.7282 H       1  UNL1        0.0380
     31 H           0.8887    1.1621    1.6197 H       1  UNL1        0.0287
     32 H           0.0150   -0.1570    2.1496 H       1  UNL1        0.0287
     33 H          -0.6859    1.7222   -0.1991 H       1  UNL1        0.0465
     34 H          -1.6809    1.4861    1.1640 H       1  UNL1        0.0465
     35 H          -3.3376    1.5626   -1.3073 H       1  UNL1        0.0394
     36 H          -4.2307    2.3019    0.7028 H       1  UNL1        0.0272
     37 H          -3.4866    0.8972    1.3678 H       1  UNL1        0.0272
     38 H          -6.3205    1.4233    0.9440 H       1  UNL1        0.0265
     39 H          -5.6266    0.1334    1.8463 H       1  UNL1        0.0265
     40 H          -6.9089   -0.3749   -0.4305 H       1  UNL1        0.0265
     41 H          -5.5190   -1.2836   -0.0846 H       1  UNL1        0.0265
     42 H          -5.0093   -0.2231   -2.2317 H       1  UNL1        0.0272
     43 H          -5.6958    1.2589   -1.8006 H       1  UNL1        0.0272
     44 H          -0.6725   -1.9075    0.6374 H       1  UNL1        0.0471
     45 H          -0.5138   -1.7681   -1.0584 H       1  UNL1        0.0471
     46 H           2.7286   -0.3575   -2.2047 H       1  UNL1        0.0639
     47 H           4.0117    1.4774   -3.1622 H       1  UNL1        0.0830
@<TRIPOS>BOND
     1     1     2    1
     2     2     3   ar
     3     2    24   ar
     4     3     4   ar
     5     4     5    1
     6     4    22   ar
     7     5     6   ar
     8     5     9   ar
     9     6     7   ar
    10     7     8   ar
    11     8     9   ar
    12     9    10    1
    13    10    11    1
    14    10    21    1
    15    11    12    1
    16    12    13    1
    17    13    14   am
    18    13    21    1
    19    14    15    2
    20    14    16    1
    21    16    17    1
    22    16    20    1
    23    17    18    1
    24    18    19    1
    25    19    20    1
    26    22    23   ar
    27    23    24   ar
    28     1    25    1
    29     1    26    1
    30     3    27    1
    31     6    28    1
    32     7    29    1
    33    10    30    1
    34    11    31    1
    35    11    32    1
    36    12    33    1
    37    12    34    1
    38    16    35    1
    39    17    36    1
    40    17    37    1
    41    18    38    1
    42    18    39    1
    43    19    40    1
    44    19    41    1
    45    20    42    1
    46    20    43    1
    47    21    44    1
    48    21    45    1
    49    22    46    1
    50    23    47    1
@<TRIPOS>MOLECULE
../data/bude_mols_rdkit_confs2/molecule_6.pdb
 47 50 0 0 0
SMALL
GASTEIGER

@<TRIPOS>ATOM
      1  N1         5.3460    2.1010   -0.9640 N.pl3   1  UNL1       -0.3431
      2  C1         5.0620    0.7460   -0.7040 C.ar    1  UNL1        0.1167
      3  C2         3.9800    0.3860    0.0750 C.ar    1  UNL1       -0.0143
      4  C3         3.6910   -0.9530    0.3340 C.ar    1  UNL1       -0.0100
      5  C4         2.5050   -1.1960    1.1660 C.ar    1  UNL1        0.0230
      6  C5         2.4010   -1.8390    2.3700 C.ar    1  UNL1        0.0303
      7  N2         1.1280   -1.6920    2.8280 N.ar    1  UNL1       -0.2839
      8  N3         0.4830   -0.9930    1.9400 N.ar    1  UNL1       -0.1779
      9  C6         1.2350   -0.6470    0.8990 C.ar    1  UNL1        0.0751
     10  C7         0.8550   -0.0280   -0.3870 C.3     1  UNL1        0.0208
     11  C8         0.6830    1.4750   -0.3310 C.3     1  UNL1       -0.0274
     12  C9        -0.4840    1.6420   -1.3230 C.3     1  UNL1        0.0153
     13  N4        -1.4270    0.7510   -0.5390 N.am    1  UNL1       -0.3006
     14  C10       -2.6140    1.2560   -0.0640 C.2     1  UNL1        0.2187
     15  O1        -2.8010    2.5470   -0.3800 O.2     1  UNL1       -0.2753
     16  C11       -3.7170    0.7120    0.7080 C.3     1  UNL1        0.0358
     17  C12       -5.0680    1.1130    0.0270 C.3     1  UNL1       -0.0419
     18  C13       -5.1740    0.0610   -1.0800 C.3     1  UNL1       -0.0523
     19  C14       -4.5290   -1.1860   -0.4570 C.3     1  UNL1       -0.0523
     20  C15       -3.8910   -0.7450    0.8470 C.3     1  UNL1       -0.0419
     21  C16       -0.6800   -0.4620   -0.5380 C.3     1  UNL1        0.0230
     22  C17        4.4920   -1.9110   -0.1870 C.ar    1  UNL1       -0.0356
     23  C18        5.5930   -1.5510   -0.9770 C.ar    1  UNL1        0.0302
     24  N5         5.8150   -0.2420   -1.1900 N.ar    1  UNL1       -0.2407
     25 H           4.7693    2.8055   -0.5894 H       1  UNL1        0.1437
     26 H           6.1212    2.3435   -1.5203 H       1  UNL1        0.1437
     27 H           3.3746    1.1212    0.4725 H       1  UNL1        0.0658
     28 H           3.1595   -2.3489    2.8492 H       1  UNL1        0.0830
     29 H           0.7642   -2.0471    3.6711 H       1  UNL1        0.1882
     30 H           1.5871   -0.3003   -1.1183 H       1  UNL1        0.0380
     31 H           1.5619    1.9887   -0.6603 H       1  UNL1        0.0287
     32 H           0.5075    1.8746    0.6460 H       1  UNL1        0.0287
     33 H          -0.2630    1.2640   -2.2993 H       1  UNL1        0.0465
     34 H          -0.8073    2.6345   -1.5581 H       1  UNL1        0.0465
     35 H          -3.4722    1.1071    1.6718 H       1  UNL1        0.0394
     36 H          -5.0237    2.1028   -0.3770 H       1  UNL1        0.0272
     37 H          -5.9047    1.1314    0.6937 H       1  UNL1        0.0272
     38 H          -4.6401    0.3710   -1.9539 H       1  UNL1        0.0265
     39 H          -6.1816   -0.1073   -1.3982 H       1  UNL1        0.0265
     40 H          -3.7849   -1.5835   -1.1151 H       1  UNL1        0.0265
     41 H          -5.2576   -1.9512   -0.2882 H       1  UNL1        0.0265
     42 H          -4.5304   -0.9709    1.6747 H       1  UNL1        0.0272
     43 H          -2.9641   -1.2463    1.0326 H       1  UNL1        0.0272
     44 H          -0.9750   -1.0808    0.2836 H       1  UNL1        0.0471
     45 H          -0.8439   -1.0267   -1.4320 H       1  UNL1        0.0471
     46 H           4.2926   -2.9067   -0.0029 H       1  UNL1        0.0639
     47 H           6.2139   -2.2686   -1.3825 H       1  UNL1        0.0830
@<TRIPOS>BOND
     1     1     2    1
     2     2     3   ar
     3     2    24   ar
     4     3     4   ar
     5     4     5    1
     6     4    22   ar
     7     5     6   ar
     8     5     9   ar
     9     6     7   ar
    10     7     8   ar
    11     8     9   ar
    12     9    10    1
    13    10    11    1
    14    10    21    1
    15    11    12    1
    16    12    13    1
    17    13    14   am
    18    13    21    1
    19    14    15    2
    20    14    16    1
    21    16    17    1
    22    16    20    1
    23    17    18    1
    24    18    19    1
    25    19    20    1
    26    22    23   ar
    27    23    24   ar
    28     1    25    1
    29     1    26    1
    30     3    27    1
    31     6    28    1
    32     7    29    1
    33    10    30    1
    34    11    31    1
    35    11    32    1
    36    12    33    1
    37    12    34    1
    38    16    35    1
    39    17    36    1
    40    17    37    1
    41    18    38    1
    42    18    39    1
    43    19    40    1
    44    19    41    1
    45    20    42    1
    46    20    43    1
    47    21    44    1
    48    21    45    1
    49    22    46    1
    50    23    47    1
@<TRIPOS>MOLECULE
../data/bude_mols_rdkit_confs2/molecule_6.pdb
 47 50 0 0 0
SMALL
GASTEIGER

@<TRIPOS>ATOM
      1  N1        -4.7620    3.6330   -0.5960 N.pl3   1  UNL1       -0.3431
      2  C1        -4.7340    2.2220   -0.5590 C.ar    1  UNL1        0.1167
      3  C2        -3.8320    1.5170    0.1750 C.ar    1  UNL1       -0.0143
      4  C3        -3.8590    0.1590    0.1590 C.ar    1  UNL1       -0.0100
      5  C4        -2.9620   -0.7720    0.8520 C.ar    1  UNL1        0.0230
      6  C5        -3.3030   -1.4550    1.9870 C.ar    1  UNL1        0.0303
      7  N2        -2.2970   -2.3280    2.2150 N.ar    1  UNL1       -0.2839
      8  N3        -1.3820   -2.1840    1.2650 N.ar    1  UNL1       -0.1779
      9  C6        -1.7630   -1.2200    0.4000 C.ar    1  UNL1        0.0751
     10  C7        -0.8770   -0.6700   -0.6600 C.3     1  UNL1        0.0208
     11  C8        -0.2970   -1.7770   -1.5170 C.3     1  UNL1       -0.0274
     12  C9         0.7630   -2.3660   -0.6880 C.3     1  UNL1        0.0153
     13  N4         1.4620   -1.0920   -0.2640 N.am    1  UNL1       -0.3006
     14  C10        2.8710   -1.0040   -0.3230 C.2     1  UNL1        0.2187
     15  O1         3.4990   -2.0130   -0.8370 O.2     1  UNL1       -0.2753
     16  C11        3.6820    0.0850    0.1270 C.3     1  UNL1        0.0358
     17  C12        3.8330    1.3090   -0.6850 C.3     1  UNL1       -0.0419
     18  C13        4.9610    2.0360    0.0770 C.3     1  UNL1       -0.0523
     19  C14        5.7800    0.9170    0.7300 C.3     1  UNL1       -0.0523
     20  C15        5.1680   -0.3640    0.2190 C.3     1  UNL1       -0.0419
     21  C16        0.4230   -0.2090    0.1210 C.3     1  UNL1        0.0230
     22  C17       -4.8580   -0.4510   -0.6530 C.ar    1  UNL1       -0.0356
     23  C18       -5.7590    0.2770   -1.3950 C.ar    1  UNL1        0.0302
     24  N5        -5.6850    1.6100   -1.3380 N.ar    1  UNL1       -0.2407
     25 H          -4.1144    4.1522   -0.0666 H       1  UNL1        0.1437
     26 H          -5.4291    4.0977   -1.1512 H       1  UNL1        0.1437
     27 H          -3.1279    2.0131    0.7434 H       1  UNL1        0.0658
     28 H          -4.1558   -1.3291    2.5543 H       1  UNL1        0.0830
     29 H          -2.2506   -2.9661    2.9632 H       1  UNL1        0.1882
     30 H          -1.4195    0.0535   -1.2320 H       1  UNL1        0.0380
     31 H           0.1087   -1.3801   -2.4241 H       1  UNL1        0.0287
     32 H          -1.0343   -2.4963   -1.8067 H       1  UNL1        0.0287
     33 H           1.4057   -3.0078   -1.2537 H       1  UNL1        0.0465
     34 H           0.4288   -2.9964    0.1093 H       1  UNL1        0.0465
     35 H           3.1398    0.3292    1.0165 H       1  UNL1        0.0394
     36 H           2.9320    1.8860   -0.6961 H       1  UNL1        0.0272
     37 H           4.0463    1.1277   -1.7177 H       1  UNL1        0.0272
     38 H           4.5533    2.6877    0.8213 H       1  UNL1        0.0265
     39 H           5.5562    2.6461   -0.5699 H       1  UNL1        0.0265
     40 H           5.7061    0.9700    1.7961 H       1  UNL1        0.0265
     41 H           6.8205    0.9886    0.4911 H       1  UNL1        0.0265
     42 H           5.5616   -0.6418   -0.7364 H       1  UNL1        0.0272
     43 H           5.3474   -1.2288    0.8231 H       1  UNL1        0.0272
     44 H           0.2600   -0.2690    1.1768 H       1  UNL1        0.0471
     45 H           0.6730    0.8051   -0.1113 H       1  UNL1        0.0471
     46 H          -4.9078   -1.4813   -0.6859 H       1  UNL1        0.0639
     47 H          -6.4701   -0.1918   -1.9777 H       1  UNL1        0.0830
@<TRIPOS>BOND
     1     1     2    1
     2     2     3   ar
     3     2    24   ar
     4     3     4   ar
     5     4     5    1
     6     4    22   ar
     7     5     6   ar
     8     5     9   ar
     9     6     7   ar
    10     7     8   ar
    11     8     9   ar
    12     9    10    1
    13    10    11    1
    14    10    21    1
    15    11    12    1
    16    12    13    1
    17    13    14   am
    18    13    21    1
    19    14    15    2
    20    14    16    1
    21    16    17    1
    22    16    20    1
    23    17    18    1
    24    18    19    1
    25    19    20    1
    26    22    23   ar
    27    23    24   ar
    28     1    25    1
    29     1    26    1
    30     3    27    1
    31     6    28    1
    32     7    29    1
    33    10    30    1
    34    11    31    1
    35    11    32    1
    36    12    33    1
    37    12    34    1
    38    16    35    1
    39    17    36    1
    40    17    37    1
    41    18    38    1
    42    18    39    1
    43    19    40    1
    44    19    41    1
    45    20    42    1
    46    20    43    1
    47    21    44    1
    48    21    45    1
    49    22    46    1
    50    23    47    1
@<TRIPOS>MOLECULE
../data/bude_mols_rdkit_confs2/molecule_6.pdb
 47 50 0 0 0
SMALL
GASTEIGER

@<TRIPOS>ATOM
      1  N1        -4.4570    2.5420   -1.3740 N.pl3   1  UNL1       -0.3431
      2  C1        -4.3260    1.6260   -0.2890 C.ar    1  UNL1        0.1167
      3  C2        -3.7290    0.4070   -0.5490 C.ar    1  UNL1       -0.0143
      4  C3        -3.5900   -0.4920    0.4750 C.ar    1  UNL1       -0.0100
      5  C4        -2.9810   -1.7980    0.3290 C.ar    1  UNL1        0.0230
      6  C5        -3.5150   -2.9970    0.8210 C.ar    1  UNL1        0.0303
      7  N2        -2.6950   -4.0100    0.5120 N.ar    1  UNL1       -0.2839
      8  N3        -1.6880   -3.4840   -0.1450 N.ar    1  UNL1       -0.1779
      9  C6        -1.8050   -2.1570   -0.2860 C.ar    1  UNL1        0.0751
     10  C7        -0.8510   -1.2310   -0.9780 C.3     1  UNL1        0.0208
     11  C8         0.3590   -2.0380   -1.3670 C.3     1  UNL1       -0.0274
     12  C9         1.5560   -1.2490   -0.9180 C.3     1  UNL1        0.0153
     13  N4         1.0710   -0.0230   -0.3190 N.am    1  UNL1       -0.3006
     14  C10        1.8760    1.0920    0.0030 C.2     1  UNL1        0.2187
     15  O1         1.3440    2.1300    0.5260 O.2     1  UNL1       -0.2753
     16  C11        3.3420    1.1430   -0.2290 C.3     1  UNL1        0.0358
     17  C12        3.9180    2.4920    0.1330 C.3     1  UNL1       -0.0419
     18  C13        5.3500    2.1400    0.5240 C.3     1  UNL1       -0.0523
     19  C14        5.2740    0.7650    1.1110 C.3     1  UNL1       -0.0523
     20  C15        4.0900    0.0850    0.4900 C.3     1  UNL1       -0.0419
     21  C16       -0.3640   -0.1230   -0.1050 C.3     1  UNL1        0.0230
     22  C17       -4.0640   -0.1160    1.7220 C.ar    1  UNL1       -0.0356
     23  C18       -4.6520    1.1090    1.9340 C.ar    1  UNL1        0.0302
     24  N5        -4.7820    1.9750    0.9340 N.ar    1  UNL1       -0.2407
     25 H          -4.1275    2.2959   -2.2685 H       1  UNL1        0.1437
     26 H          -4.8769    3.4205   -1.2286 H       1  UNL1        0.1437
     27 H          -3.3939    0.1781   -1.4979 H       1  UNL1        0.0658
     28 H          -4.4022   -3.0855    1.3406 H       1  UNL1        0.0830
     29 H          -2.8224   -4.9607    0.7338 H       1  UNL1        0.1882
     30 H          -1.3703   -0.7982   -1.8074 H       1  UNL1        0.0380
     31 H           0.3849   -2.1788   -2.4274 H       1  UNL1        0.0287
     32 H           0.3410   -3.0075   -0.9146 H       1  UNL1        0.0287
     33 H           2.1802   -1.0233   -1.7572 H       1  UNL1        0.0465
     34 H           2.1334   -1.8096   -0.2129 H       1  UNL1        0.0465
     35 H           3.4624    0.9708   -1.2782 H       1  UNL1        0.0394
     36 H           3.3894    2.9316    0.9529 H       1  UNL1        0.0272
     37 H           3.8540    3.2110   -0.6568 H       1  UNL1        0.0272
     38 H           5.7227    2.8356    1.2465 H       1  UNL1        0.0265
     39 H           6.0130    2.1789   -0.3149 H       1  UNL1        0.0265
     40 H           5.1479    0.8253    2.1718 H       1  UNL1        0.0265
     41 H           6.1727    0.2178    0.9166 H       1  UNL1        0.0265
     42 H           4.4125   -0.6723   -0.1937 H       1  UNL1        0.0272
     43 H           3.4807   -0.3929    1.2284 H       1  UNL1        0.0272
     44 H          -0.5693   -0.3447    0.9214 H       1  UNL1        0.0471
     45 H          -0.8539    0.7981   -0.3425 H       1  UNL1        0.0471
     46 H          -3.9732   -0.7730    2.5127 H       1  UNL1        0.0639
     47 H          -4.9944    1.3574    2.8753 H       1  UNL1        0.0830
@<TRIPOS>BOND
     1     1     2    1
     2     2     3   ar
     3     2    24   ar
     4     3     4   ar
     5     4     5    1
     6     4    22   ar
     7     5     6   ar
     8     5     9   ar
     9     6     7   ar
    10     7     8   ar
    11     8     9   ar
    12     9    10    1
    13    10    11    1
    14    10    21    1
    15    11    12    1
    16    12    13    1
    17    13    14   am
    18    13    21    1
    19    14    15    2
    20    14    16    1
    21    16    17    1
    22    16    20    1
    23    17    18    1
    24    18    19    1
    25    19    20    1
    26    22    23   ar
    27    23    24   ar
    28     1    25    1
    29     1    26    1
    30     3    27    1
    31     6    28    1
    32     7    29    1
    33    10    30    1
    34    11    31    1
    35    11    32    1
    36    12    33    1
    37    12    34    1
    38    16    35    1
    39    17    36    1
    40    17    37    1
    41    18    38    1
    42    18    39    1
    43    19    40    1
    44    19    41    1
    45    20    42    1
    46    20    43    1
    47    21    44    1
    48    21    45    1
    49    22    46    1
    50    23    47    1
@<TRIPOS>MOLECULE
../data/bude_mols_rdkit_confs2/molecule_6.pdb
 47 50 0 0 0
SMALL
GASTEIGER

@<TRIPOS>ATOM
      1  N1         5.4300    2.5920   -0.9540 N.pl3   1  UNL1       -0.3431
      2  C1         5.2870    1.2380   -0.5330 C.ar    1  UNL1        0.1167
      3  C2         4.1280    0.5190   -0.8470 C.ar    1  UNL1       -0.0143
      4  C3         3.9410   -0.7630   -0.4500 C.ar    1  UNL1       -0.0100
      5  C4         2.7410   -1.5800   -0.5800 C.ar    1  UNL1        0.0230
      6  C5         2.7200   -2.9170   -0.9470 C.ar    1  UNL1        0.0303
      7  N2         1.4910   -3.4100   -0.7960 N.ar    1  UNL1       -0.2839
      8  N3         0.7370   -2.4030   -0.3430 N.ar    1  UNL1       -0.1779
      9  C6         1.4480   -1.2820   -0.2010 C.ar    1  UNL1        0.0751
     10  C7         0.9630    0.0560    0.1350 C.3     1  UNL1        0.0208
     11  C8         0.5850    0.1290    1.6260 C.3     1  UNL1       -0.0274
     12  C9        -0.4950    1.1580    1.6220 C.3     1  UNL1        0.0153
     13  N4        -1.3520    0.6320    0.5310 N.am    1  UNL1       -0.3006
     14  C10       -2.7600    0.6580    0.5860 C.2     1  UNL1        0.2187
     15  O1        -3.3360    1.1220    1.6170 O.2     1  UNL1       -0.2753
     16  C11       -3.6520    0.1670   -0.4850 C.3     1  UNL1        0.0358
     17  C12       -4.6570   -0.8310    0.0820 C.3     1  UNL1       -0.0419
     18  C13       -5.8300   -0.0420    0.5800 C.3     1  UNL1       -0.0523
     19  C14       -5.6120    1.4050    0.1740 C.3     1  UNL1       -0.0523
     20  C15       -4.5530    1.3300   -0.9170 C.3     1  UNL1       -0.0419
     21  C16       -0.4990    0.1220   -0.4700 C.3     1  UNL1        0.0230
     22  C17        4.9910   -1.3390    0.2950 C.ar    1  UNL1       -0.0356
     23  C18        6.1340   -0.6360    0.6030 C.ar    1  UNL1        0.0302
     24  N5         6.2490    0.6350    0.1770 N.ar    1  UNL1       -0.2407
     25 H           4.7151    3.0234   -1.4755 H       1  UNL1        0.1437
     26 H           6.2437    3.0959   -0.7233 H       1  UNL1        0.1437
     27 H           3.3898    0.9815   -1.4004 H       1  UNL1        0.0658
     28 H           3.5351   -3.4511   -1.2867 H       1  UNL1        0.0830
     29 H           1.1972   -4.3312   -0.9810 H       1  UNL1        0.1882
     30 H           1.6919    0.7752   -0.1754 H       1  UNL1        0.0380
     31 H           1.4165    0.4404    2.2231 H       1  UNL1        0.0287
     32 H           0.2846   -0.8102    2.0414 H       1  UNL1        0.0287
     33 H          -0.1145    2.1315    1.3931 H       1  UNL1        0.0465
     34 H          -0.9925    1.2913    2.5599 H       1  UNL1        0.0465
     35 H          -3.0411   -0.2480   -1.2593 H       1  UNL1        0.0394
     36 H          -4.2150   -1.3792    0.8876 H       1  UNL1        0.0272
     37 H          -4.9606   -1.5324   -0.6669 H       1  UNL1        0.0272
     38 H          -5.8948   -0.1167    1.6454 H       1  UNL1        0.0265
     39 H          -6.7411   -0.4173    0.1631 H       1  UNL1        0.0265
     40 H          -5.2623    1.9835    1.0034 H       1  UNL1        0.0265
     41 H          -6.5121    1.8776   -0.1597 H       1  UNL1        0.0265
     42 H          -5.0010    1.1304   -1.8680 H       1  UNL1        0.0272
     43 H          -4.0137    2.2473   -1.0293 H       1  UNL1        0.0272
     44 H          -0.8193   -0.8575   -0.7581 H       1  UNL1        0.0471
     45 H          -0.5192    0.7494   -1.3365 H       1  UNL1        0.0471
     46 H           4.9000   -2.3148    0.6183 H       1  UNL1        0.0639
     47 H           6.8894   -1.0763    1.1511 H       1  UNL1        0.0830
@<TRIPOS>BOND
     1     1     2    1
     2     2     3   ar
     3     2    24   ar
     4     3     4   ar
     5     4     5    1
     6     4    22   ar
     7     5     6   ar
     8     5     9   ar
     9     6     7   ar
    10     7     8   ar
    11     8     9   ar
    12     9    10    1
    13    10    11    1
    14    10    21    1
    15    11    12    1
    16    12    13    1
    17    13    14   am
    18    13    21    1
    19    14    15    2
    20    14    16    1
    21    16    17    1
    22    16    20    1
    23    17    18    1
    24    18    19    1
    25    19    20    1
    26    22    23   ar
    27    23    24   ar
    28     1    25    1
    29     1    26    1
    30     3    27    1
    31     6    28    1
    32     7    29    1
    33    10    30    1
    34    11    31    1
    35    11    32    1
    36    12    33    1
    37    12    34    1
    38    16    35    1
    39    17    36    1
    40    17    37    1
    41    18    38    1
    42    18    39    1
    43    19    40    1
    44    19    41    1
    45    20    42    1
    46    20    43    1
    47    21    44    1
    48    21    45    1
    49    22    46    1
    50    23    47    1
