@<TRIPOS>MOLECULE
../data/bude_mols_rdkit_confs2/molecule_46.pdb
 32 33 0 0 0
SMALL
GASTEIGER

@<TRIPOS>ATOM
      1 O           2.5400    3.3280    1.3240 O.2     1  UNL1       -0.2450
      2 C           2.9980    2.4140    0.7390 C.2     1  UNL1        0.3407
      3 O           4.4260    2.7150    0.4220 O.3     1  UNL1       -0.4770
      4 C           2.5320    1.1450    0.2660 C.ar    1  UNL1        0.1104
      5 C           1.2340    0.7290    0.3090 C.ar    1  UNL1       -0.0020
      6 C           0.7480   -0.4560   -0.2650 C.ar    1  UNL1        0.1284
      7 O          -0.5090   -0.7380   -0.1860 O.3     1  UNL1       -0.4870
      8 C          -1.6520   -1.3580   -0.3280 C.3     1  UNL1        0.1173
      9 C          -2.8180   -0.6400    0.2940 C.ar    1  UNL1        0.0248
     10 C          -3.2390   -0.7020    1.5730 C.ar    1  UNL1       -0.0526
     11 C          -4.4350   -0.1080    1.9550 C.ar    1  UNL1       -0.0612
     12 C          -5.2260    0.5590    1.0670 C.ar    1  UNL1       -0.0590
     13 C          -4.8130    0.6430   -0.2710 C.ar    1  UNL1       -0.0261
     14 C          -3.6520    0.0580   -0.6270 C.ar    1  UNL1        0.1298
     15 F          -3.2320    0.1670   -1.9300 F       1  UNL1       -0.2051
     16 C           1.6840   -1.2460   -0.9130 C.ar    1  UNL1        0.0611
     17 C           3.0270   -0.8950   -1.0040 C.ar    1  UNL1        0.3183
     18 N           3.9340   -1.7600   -1.6610 N.pl3   1  UNL1        0.0836
     19 O           3.4530   -2.5380   -2.5440 O.2     1  UNL1        0.0416
     20 O           5.2660   -1.8830   -1.4280 O.co2   1  UNL1       -0.5759
     21 C           3.4360    0.3050   -0.4100 C.ar    1  UNL1        0.2092
     22 O           4.7450    0.6910   -0.4830 O.3     1  UNL1       -0.5007
     23 H           4.9443    2.0892   -0.0446 H       1  UNL1        0.2954
     24 H           0.5568    1.3321    0.8016 H       1  UNL1        0.0663
     25 H          -1.5700   -2.3233    0.1262 H       1  UNL1        0.0749
     26 H          -1.8465   -1.4126   -1.3788 H       1  UNL1        0.0749
     27 H          -2.6668   -1.1959    2.2756 H       1  UNL1        0.0622
     28 H          -4.7339   -0.1735    2.9406 H       1  UNL1        0.0618
     29 H          -6.1107    0.9933    1.3731 H       1  UNL1        0.0618
     30 H          -5.3864    1.1426   -0.9686 H       1  UNL1        0.0646
     31 H           1.3724   -2.1298   -1.3452 H       1  UNL1        0.0724
     32 H           5.0195    1.4940   -0.0857 H       1  UNL1        0.2924
@<TRIPOS>UNITY_ATOM_ATTR
18 1
charge 1
20 1
charge -1
@<TRIPOS>BOND
     1     1     2    2
     2     2     3    1
     3     2     4    1
     4     4     5   ar
     5     4    21   ar
     6     5     6   ar
     7     6     7    1
     8     6    16   ar
     9     7     8    1
    10     8     9    1
    11     9    10   ar
    12     9    14   ar
    13    10    11   ar
    14    11    12   ar
    15    12    13   ar
    16    13    14   ar
    17    14    15    1
    18    16    17   ar
    19    17    18    1
    20    17    21   ar
    21    18    19    2
    22    18    20    1
    23    21    22    1
    24     3    23    1
    25     5    24    1
    26     8    25    1
    27     8    26    1
    28    10    27    1
    29    11    28    1
    30    12    29    1
    31    13    30    1
    32    16    31    1
    33    22    32    1
@<TRIPOS>MOLECULE
../data/bude_mols_rdkit_confs2/molecule_46.pdb
 32 33 0 0 0
SMALL
GASTEIGER

@<TRIPOS>ATOM
      1 O          -5.0560    2.1690    0.4470 O.2     1  UNL1       -0.2450
      2 C          -3.8070    2.2680    0.4660 C.2     1  UNL1        0.3407
      3 O          -3.2160    3.4680    0.7290 O.3     1  UNL1       -0.4770
      4 C          -3.0170    1.0780    0.2000 C.ar    1  UNL1        0.1104
      5 C          -1.6340    1.1580    0.1860 C.ar    1  UNL1       -0.0020
      6 C          -0.8260    0.0850   -0.0780 C.ar    1  UNL1        0.1284
      7 O           0.5570    0.2540   -0.0750 O.3     1  UNL1       -0.4870
      8 C           1.3950   -0.8660   -0.4010 C.3     1  UNL1        0.1173
      9 C           2.7800   -0.3850   -0.3380 C.ar    1  UNL1        0.0248
     10 C           3.7780   -1.0550    0.3750 C.ar    1  UNL1       -0.0526
     11 C           5.0860   -0.6540    0.3860 C.ar    1  UNL1       -0.0612
     12 C           5.4480    0.4860   -0.3510 C.ar    1  UNL1       -0.0590
     13 C           4.4850    1.1800   -1.0730 C.ar    1  UNL1       -0.0261
     14 C           3.1660    0.7180   -1.0450 C.ar    1  UNL1        0.1298
     15 F           2.2010    1.4030   -1.7510 F       1  UNL1       -0.2051
     16 C          -1.3780   -1.1440   -0.3430 C.ar    1  UNL1        0.0611
     17 C          -2.7850   -1.2670   -0.3370 C.ar    1  UNL1        0.3183
     18 N          -3.2960   -2.5460   -0.6110 N.pl3   1  UNL1        0.0836
     19 O          -2.6130   -3.3250   -1.3570 O.2     1  UNL1        0.0416
     20 O          -4.4870   -2.9690   -0.1180 O.co2   1  UNL1       -0.5759
     21 C          -3.5760   -0.1770   -0.0710 C.ar    1  UNL1        0.2092
     22 O          -4.9420   -0.2610   -0.0550 O.3     1  UNL1       -0.5007
     23 H          -2.2817    3.5372    0.7421 H       1  UNL1        0.2954
     24 H          -1.1921    2.0694    0.3839 H       1  UNL1        0.0663
     25 H           1.1715   -1.2202   -1.3856 H       1  UNL1        0.0749
     26 H           1.2368   -1.6773    0.2784 H       1  UNL1        0.0749
     27 H           3.5159   -1.8919    0.9190 H       1  UNL1        0.0622
     28 H           5.7927   -1.1785    0.9250 H       1  UNL1        0.0618
     29 H           6.4286    0.8077   -0.3561 H       1  UNL1        0.0618
     30 H           4.7381    2.0188   -1.6184 H       1  UNL1        0.0646
     31 H          -0.7781   -1.9598   -0.5421 H       1  UNL1        0.0724
     32 H          -5.4561    0.5003    0.1298 H       1  UNL1        0.2924
@<TRIPOS>UNITY_ATOM_ATTR
18 1
charge 1
20 1
charge -1
@<TRIPOS>BOND
     1     1     2    2
     2     2     3    1
     3     2     4    1
     4     4     5   ar
     5     4    21   ar
     6     5     6   ar
     7     6     7    1
     8     6    16   ar
     9     7     8    1
    10     8     9    1
    11     9    10   ar
    12     9    14   ar
    13    10    11   ar
    14    11    12   ar
    15    12    13   ar
    16    13    14   ar
    17    14    15    1
    18    16    17   ar
    19    17    18    1
    20    17    21   ar
    21    18    19    2
    22    18    20    1
    23    21    22    1
    24     3    23    1
    25     5    24    1
    26     8    25    1
    27     8    26    1
    28    10    27    1
    29    11    28    1
    30    12    29    1
    31    13    30    1
    32    16    31    1
    33    22    32    1
@<TRIPOS>MOLECULE
../data/bude_mols_rdkit_confs2/molecule_46.pdb
 32 33 0 0 0
SMALL
GASTEIGER

@<TRIPOS>ATOM
      1 O           3.0940    1.7430    2.9410 O.2     1  UNL1       -0.2450
      2 C           3.7110    1.2070    1.9570 C.2     1  UNL1        0.3407
      3 O           5.0790    1.2760    2.0200 O.3     1  UNL1       -0.4770
      4 C           2.9400    0.5850    0.8820 C.ar    1  UNL1        0.1104
      5 C           1.5530    0.5940    0.9590 C.ar    1  UNL1       -0.0020
      6 C           0.7690    0.0280   -0.0150 C.ar    1  UNL1        0.1284
      7 O          -0.6040    0.0370    0.0630 O.3     1  UNL1       -0.4870
      8 C          -1.4740   -0.5200   -0.8920 C.3     1  UNL1        0.1173
      9 C          -2.8780   -0.2820   -0.4040 C.ar    1  UNL1        0.0248
     10 C          -3.1240    0.3780    0.7820 C.ar    1  UNL1       -0.0526
     11 C          -4.3900    0.6210    1.2710 C.ar    1  UNL1       -0.0612
     12 C          -5.4640    0.1750    0.5240 C.ar    1  UNL1       -0.0590
     13 C          -5.2670   -0.4900   -0.6680 C.ar    1  UNL1       -0.0261
     14 C          -3.9800   -0.7090   -1.1160 C.ar    1  UNL1        0.1298
     15 F          -3.7950   -1.3560   -2.2790 F       1  UNL1       -0.2051
     16 C           1.3840   -0.5690   -1.1060 C.ar    1  UNL1        0.0611
     17 C           2.7480   -0.6040   -1.2300 C.ar    1  UNL1        0.3183
     18 N           3.3660   -1.2180   -2.3530 N.pl3   1  UNL1        0.0836
     19 O           4.4620   -1.7850   -2.3170 O.2     1  UNL1        0.0416
     20 O           2.6950   -1.1750   -3.5530 O.co2   1  UNL1       -0.5759
     21 C           3.5110   -0.0160   -0.2150 C.ar    1  UNL1        0.2092
     22 O           4.8570   -0.0800   -0.3890 O.3     1  UNL1       -0.5007
     23 H           5.5989    0.9048    1.3345 H       1  UNL1        0.2954
     24 H           1.0991    1.0391    1.7719 H       1  UNL1        0.0663
     25 H          -1.2914   -1.5701   -0.9866 H       1  UNL1        0.0749
     26 H          -1.3233   -0.0716   -1.8518 H       1  UNL1        0.0749
     27 H          -2.3164    0.7079    1.3334 H       1  UNL1        0.0622
     28 H          -4.5309    1.1187    2.1640 H       1  UNL1        0.0618
     29 H          -6.4247    0.3416    0.8622 H       1  UNL1        0.0618
     30 H          -6.0740   -0.8207   -1.2197 H       1  UNL1        0.0646
     31 H           0.8002   -0.9969   -1.8416 H       1  UNL1        0.0724
     32 H           5.4304    0.2932    0.2512 H       1  UNL1        0.2924
@<TRIPOS>UNITY_ATOM_ATTR
18 1
charge 1
20 1
charge -1
@<TRIPOS>BOND
     1     1     2    2
     2     2     3    1
     3     2     4    1
     4     4     5   ar
     5     4    21   ar
     6     5     6   ar
     7     6     7    1
     8     6    16   ar
     9     7     8    1
    10     8     9    1
    11     9    10   ar
    12     9    14   ar
    13    10    11   ar
    14    11    12   ar
    15    12    13   ar
    16    13    14   ar
    17    14    15    1
    18    16    17   ar
    19    17    18    1
    20    17    21   ar
    21    18    19    2
    22    18    20    1
    23    21    22    1
    24     3    23    1
    25     5    24    1
    26     8    25    1
    27     8    26    1
    28    10    27    1
    29    11    28    1
    30    12    29    1
    31    13    30    1
    32    16    31    1
    33    22    32    1
@<TRIPOS>MOLECULE
../data/bude_mols_rdkit_confs2/molecule_46.pdb
 32 33 0 0 0
SMALL
GASTEIGER

@<TRIPOS>ATOM
      1 O          -0.9060    0.8550   -2.8480 O.2     1  UNL1       -0.2450
      2 C          -1.9340    0.9140   -2.0700 C.2     1  UNL1        0.3407
      3 O          -2.9640    1.6620   -2.5960 O.3     1  UNL1       -0.4770
      4 C          -1.9050    0.2290   -0.7950 C.ar    1  UNL1        0.1104
      5 C          -0.7230   -0.4690   -0.4940 C.ar    1  UNL1       -0.0020
      6 C          -0.6170   -1.1430    0.6930 C.ar    1  UNL1        0.1284
      7 O           0.5120   -1.8640    1.0850 O.3     1  UNL1       -0.4870
      8 C           1.6900   -1.9830    0.3450 C.3     1  UNL1        0.1173
      9 C           2.4320   -0.7400    0.1300 C.ar    1  UNL1        0.0248
     10 C           2.0310    0.4340    0.7060 C.ar    1  UNL1       -0.0526
     11 C           2.7390    1.6300    0.5480 C.ar    1  UNL1       -0.0612
     12 C           3.8780    1.5990   -0.2210 C.ar    1  UNL1       -0.0590
     13 C           4.3060    0.4080   -0.8180 C.ar    1  UNL1       -0.0261
     14 C           3.5860   -0.7460   -0.6410 C.ar    1  UNL1        0.1298
     15 F           3.9670   -1.9050   -1.1990 F       1  UNL1       -0.2051
     16 C          -1.6660   -1.1360    1.5890 C.ar    1  UNL1        0.0611
     17 C          -2.8130   -0.4570    1.2940 C.ar    1  UNL1        0.3183
     18 N          -3.9160   -0.4270    2.1940 N.pl3   1  UNL1        0.0836
     19 O          -3.7510   -0.5540    3.4190 O.2     1  UNL1        0.0416
     20 O          -5.2000   -0.2580    1.7380 O.co2   1  UNL1       -0.5759
     21 C          -2.9540    0.2510    0.0740 C.ar    1  UNL1        0.2092
     22 O          -4.1190    0.9140   -0.1760 O.3     1  UNL1       -0.5007
     23 H          -3.7592    1.7699   -2.1122 H       1  UNL1        0.2954
     24 H           0.0614   -0.4735   -1.1646 H       1  UNL1        0.0663
     25 H           1.4369   -2.3849   -0.6138 H       1  UNL1        0.0749
     26 H           2.3351   -2.6119    0.9222 H       1  UNL1        0.0749
     27 H           1.1729    0.4375    1.2793 H       1  UNL1        0.0622
     28 H           2.4178    2.5041    0.9927 H       1  UNL1        0.0618
     29 H           4.4236    2.4639   -0.3596 H       1  UNL1        0.0618
     30 H           5.1638    0.3979   -1.3917 H       1  UNL1        0.0646
     31 H          -1.5835   -1.6446    2.4832 H       1  UNL1        0.0724
     32 H          -4.2265    1.3862   -0.9781 H       1  UNL1        0.2924
@<TRIPOS>UNITY_ATOM_ATTR
18 1
charge 1
20 1
charge -1
@<TRIPOS>BOND
     1     1     2    2
     2     2     3    1
     3     2     4    1
     4     4     5   ar
     5     4    21   ar
     6     5     6   ar
     7     6     7    1
     8     6    16   ar
     9     7     8    1
    10     8     9    1
    11     9    10   ar
    12     9    14   ar
    13    10    11   ar
    14    11    12   ar
    15    12    13   ar
    16    13    14   ar
    17    14    15    1
    18    16    17   ar
    19    17    18    1
    20    17    21   ar
    21    18    19    2
    22    18    20    1
    23    21    22    1
    24     3    23    1
    25     5    24    1
    26     8    25    1
    27     8    26    1
    28    10    27    1
    29    11    28    1
    30    12    29    1
    31    13    30    1
    32    16    31    1
    33    22    32    1
@<TRIPOS>MOLECULE
../data/bude_mols_rdkit_confs2/molecule_46.pdb
 32 33 0 0 0
SMALL
GASTEIGER

@<TRIPOS>ATOM
      1 O          -3.4750    1.9330    2.9550 O.2     1  UNL1       -0.2450
      2 C          -3.9160    1.3750    1.9290 C.2     1  UNL1        0.3407
      3 O          -5.2980    1.3990    1.7110 O.3     1  UNL1       -0.4770
      4 C          -3.0010    0.7300    1.0100 C.ar    1  UNL1        0.1104
      5 C          -1.6510    0.7130    1.2130 C.ar    1  UNL1       -0.0020
      6 C          -0.7940    0.0880    0.2930 C.ar    1  UNL1        0.1284
      7 O           0.5680    0.0930    0.5290 O.3     1  UNL1       -0.4870
      8 C           1.4800   -0.4780   -0.3640 C.3     1  UNL1        0.1173
      9 C           2.8850   -0.3140    0.1200 C.ar    1  UNL1        0.0248
     10 C           3.7920   -1.3830    0.1550 C.ar    1  UNL1       -0.0526
     11 C           5.1020   -1.2140    0.5320 C.ar    1  UNL1       -0.0612
     12 C           5.5900    0.0330    0.9000 C.ar    1  UNL1       -0.0590
     13 C           4.6860    1.1040    0.8680 C.ar    1  UNL1       -0.0261
     14 C           3.3750    0.9280    0.4880 C.ar    1  UNL1        0.1298
     15 F           2.5120    1.9840    0.4750 F       1  UNL1       -0.2051
     16 C          -1.2690   -0.5300   -0.8350 C.ar    1  UNL1        0.0611
     17 C          -2.6500   -0.5200   -1.0540 C.ar    1  UNL1        0.3183
     18 N          -3.1350   -1.1660   -2.2170 N.pl3   1  UNL1        0.0836
     19 O          -2.4610   -2.1290   -2.6630 O.2     1  UNL1        0.0416
     20 O          -4.2750   -0.7860   -2.8550 O.co2   1  UNL1       -0.5759
     21 C          -3.4980    0.0960   -0.1530 C.ar    1  UNL1        0.2092
     22 O          -4.8670    0.1540   -0.2780 O.3     1  UNL1       -0.5007
     23 H          -5.6594    0.9889    0.9500 H       1  UNL1        0.2954
     24 H          -1.2558    1.1648    2.0525 H       1  UNL1        0.0663
     25 H           1.3810   -0.0010   -1.3167 H       1  UNL1        0.0749
     26 H           1.2683   -1.5239   -0.4422 H       1  UNL1        0.0749
     27 H           3.4653   -2.3252   -0.1105 H       1  UNL1        0.0622
     28 H           5.7353   -2.0288    0.5420 H       1  UNL1        0.0618
     29 H           6.5733    0.1652    1.1841 H       1  UNL1        0.0618
     30 H           5.0111    2.0462    1.1356 H       1  UNL1        0.0646
     31 H          -0.6276   -0.9880   -1.5013 H       1  UNL1        0.0724
     32 H          -5.3790    0.5902    0.3744 H       1  UNL1        0.2924
@<TRIPOS>UNITY_ATOM_ATTR
18 1
charge 1
20 1
charge -1
@<TRIPOS>BOND
     1     1     2    2
     2     2     3    1
     3     2     4    1
     4     4     5   ar
     5     4    21   ar
     6     5     6   ar
     7     6     7    1
     8     6    16   ar
     9     7     8    1
    10     8     9    1
    11     9    10   ar
    12     9    14   ar
    13    10    11   ar
    14    11    12   ar
    15    12    13   ar
    16    13    14   ar
    17    14    15    1
    18    16    17   ar
    19    17    18    1
    20    17    21   ar
    21    18    19    2
    22    18    20    1
    23    21    22    1
    24     3    23    1
    25     5    24    1
    26     8    25    1
    27     8    26    1
    28    10    27    1
    29    11    28    1
    30    12    29    1
    31    13    30    1
    32    16    31    1
    33    22    32    1
@<TRIPOS>MOLECULE
../data/bude_mols_rdkit_confs2/molecule_46.pdb
 32 33 0 0 0
SMALL
GASTEIGER

@<TRIPOS>ATOM
      1 O          -5.0510    2.2270    0.3730 O.2     1  UNL1       -0.2450
      2 C          -3.8200    2.2200    0.4340 C.2     1  UNL1        0.3407
      3 O          -3.2140    3.4200    0.8390 O.3     1  UNL1       -0.4770
      4 C          -3.0240    1.0580    0.1130 C.ar    1  UNL1        0.1104
      5 C          -1.6230    1.1710    0.2210 C.ar    1  UNL1       -0.0020
      6 C          -0.8290    0.1090   -0.0690 C.ar    1  UNL1        0.1284
      7 O           0.5560    0.2600    0.0490 O.3     1  UNL1       -0.4870
      8 C           1.3940   -0.8270   -0.2440 C.3     1  UNL1        0.1173
      9 C           2.7950   -0.4110   -0.0450 C.ar    1  UNL1        0.0248
     10 C           3.0940    0.8570    0.3570 C.ar    1  UNL1       -0.0526
     11 C           4.4220    1.2040    0.5300 C.ar    1  UNL1       -0.0612
     12 C           5.4320    0.2870    0.3000 C.ar    1  UNL1       -0.0590
     13 C           5.1110   -0.9910   -0.1070 C.ar    1  UNL1       -0.0261
     14 C           3.7900   -1.3210   -0.2740 C.ar    1  UNL1        0.1298
     15 F           3.4930   -2.6070   -0.6820 F       1  UNL1       -0.2051
     16 C          -1.3630   -1.0840   -0.4670 C.ar    1  UNL1        0.0611
     17 C          -2.7140   -1.1820   -0.5680 C.ar    1  UNL1        0.3183
     18 N          -3.2860   -2.4200   -0.9840 N.pl3   1  UNL1        0.0836
     19 O          -4.4030   -2.7940   -0.5720 O.2     1  UNL1        0.0416
     20 O          -2.6360   -3.2560   -1.8540 O.co2   1  UNL1       -0.5759
     21 C          -3.5940   -0.1190   -0.2820 C.ar    1  UNL1        0.2092
     22 O          -4.9250   -0.3310   -0.4170 O.3     1  UNL1       -0.5007
     23 H          -2.2809    3.4750    0.9040 H       1  UNL1        0.2954
     24 H          -1.2001    2.0632    0.5212 H       1  UNL1        0.0663
     25 H           1.2491   -1.1297   -1.2600 H       1  UNL1        0.0749
     26 H           1.1629   -1.6495    0.4001 H       1  UNL1        0.0749
     27 H           2.3440    1.5448    0.5289 H       1  UNL1        0.0622
     28 H           4.6625    2.1602    0.8348 H       1  UNL1        0.0618
     29 H           6.4191    0.5575    0.4321 H       1  UNL1        0.0618
     30 H           5.8521   -1.6873   -0.2830 H       1  UNL1        0.0646
     31 H          -0.7558   -1.8895   -0.6851 H       1  UNL1        0.0724
     32 H          -5.5305    0.3599   -0.2328 H       1  UNL1        0.2924
@<TRIPOS>UNITY_ATOM_ATTR
18 1
charge 1
20 1
charge -1
@<TRIPOS>BOND
     1     1     2    2
     2     2     3    1
     3     2     4    1
     4     4     5   ar
     5     4    21   ar
     6     5     6   ar
     7     6     7    1
     8     6    16   ar
     9     7     8    1
    10     8     9    1
    11     9    10   ar
    12     9    14   ar
    13    10    11   ar
    14    11    12   ar
    15    12    13   ar
    16    13    14   ar
    17    14    15    1
    18    16    17   ar
    19    17    18    1
    20    17    21   ar
    21    18    19    2
    22    18    20    1
    23    21    22    1
    24     3    23    1
    25     5    24    1
    26     8    25    1
    27     8    26    1
    28    10    27    1
    29    11    28    1
    30    12    29    1
    31    13    30    1
    32    16    31    1
    33    22    32    1
@<TRIPOS>MOLECULE
../data/bude_mols_rdkit_confs2/molecule_46.pdb
 32 33 0 0 0
SMALL
GASTEIGER

@<TRIPOS>ATOM
      1 O           3.2700   -1.6380   -1.9460 O.2     1  UNL1       -0.2450
      2 C           3.6880   -1.3820   -0.8110 C.2     1  UNL1        0.3407
      3 O           4.9940   -1.6870   -0.4940 O.3     1  UNL1       -0.4770
      4 C           2.7840   -0.7600    0.1760 C.ar    1  UNL1        0.1104
      5 C           1.4790   -0.5230   -0.2010 C.ar    1  UNL1       -0.0020
      6 C           0.5760    0.0260    0.7020 C.ar    1  UNL1        0.1284
      7 O          -0.7430    0.2670    0.3330 O.3     1  UNL1       -0.4870
      8 C          -1.1620   -0.0290   -1.0000 C.3     1  UNL1        0.1173
      9 C          -2.5920    0.3180   -1.1560 C.ar    1  UNL1        0.0248
     10 C          -3.5060   -0.5890   -1.6150 C.ar    1  UNL1       -0.0526
     11 C          -4.8180   -0.2060   -1.8340 C.ar    1  UNL1       -0.0612
     12 C          -5.2480    1.0920   -1.5980 C.ar    1  UNL1       -0.0590
     13 C          -4.3090    2.0410   -1.1230 C.ar    1  UNL1       -0.0261
     14 C          -3.0130    1.6240   -0.9190 C.ar    1  UNL1        0.1298
     15 F          -2.1210    2.5240   -0.4210 F       1  UNL1       -0.2051
     16 C           1.0490    0.3170    1.9730 C.ar    1  UNL1        0.0611
     17 C           2.3490    0.0900    2.3560 C.ar    1  UNL1        0.3183
     18 N           2.7780    0.4490    3.6400 N.pl3   1  UNL1        0.0836
     19 O           1.9440    0.4290    4.5810 O.2     1  UNL1        0.0416
     20 O           4.0810    0.8160    3.8790 O.co2   1  UNL1       -0.5759
     21 C           3.2330   -0.4600    1.4430 C.ar    1  UNL1        0.2092
     22 O           4.5420   -0.7330    1.7400 O.3     1  UNL1       -0.5007
     23 H           5.3245   -1.4987    0.3623 H       1  UNL1        0.2954
     24 H           1.1711   -0.7544   -1.1584 H       1  UNL1        0.0663
     25 H          -1.0250   -1.0724   -1.1936 H       1  UNL1        0.0749
     26 H          -0.5789    0.5417   -1.6922 H       1  UNL1        0.0749
     27 H          -3.2169   -1.5625   -1.7988 H       1  UNL1        0.0622
     28 H          -5.4939   -0.9040   -2.1818 H       1  UNL1        0.0618
     29 H          -6.2304    1.3604   -1.7648 H       1  UNL1        0.0618
     30 H          -4.5886    3.0165   -0.9354 H       1  UNL1        0.0646
     31 H           0.3956    0.7220    2.6616 H       1  UNL1        0.0724
     32 H           5.1024   -1.1057    1.0881 H       1  UNL1        0.2924
@<TRIPOS>UNITY_ATOM_ATTR
18 1
charge 1
20 1
charge -1
@<TRIPOS>BOND
     1     1     2    2
     2     2     3    1
     3     2     4    1
     4     4     5   ar
     5     4    21   ar
     6     5     6   ar
     7     6     7    1
     8     6    16   ar
     9     7     8    1
    10     8     9    1
    11     9    10   ar
    12     9    14   ar
    13    10    11   ar
    14    11    12   ar
    15    12    13   ar
    16    13    14   ar
    17    14    15    1
    18    16    17   ar
    19    17    18    1
    20    17    21   ar
    21    18    19    2
    22    18    20    1
    23    21    22    1
    24     3    23    1
    25     5    24    1
    26     8    25    1
    27     8    26    1
    28    10    27    1
    29    11    28    1
    30    12    29    1
    31    13    30    1
    32    16    31    1
    33    22    32    1
@<TRIPOS>MOLECULE
../data/bude_mols_rdkit_confs2/molecule_46.pdb
 32 33 0 0 0
SMALL
GASTEIGER

@<TRIPOS>ATOM
      1 O          -2.7900    2.5410   -1.6870 O.2     1  UNL1       -0.2450
      2 C          -3.4660    1.5520   -1.3070 C.2     1  UNL1        0.3407
      3 O          -4.8350    1.5410   -1.5000 O.3     1  UNL1       -0.4770
      4 C          -2.7500    0.4550   -0.6750 C.ar    1  UNL1        0.1104
      5 C          -1.3960    0.4830   -0.4930 C.ar    1  UNL1       -0.0020
      6 C          -0.6910   -0.5430    0.1030 C.ar    1  UNL1        0.1284
      7 O           0.6840   -0.5070    0.2830 O.3     1  UNL1       -0.4870
      8 C           1.3570    0.6450   -0.1760 C.3     1  UNL1        0.1173
      9 C           2.7950    0.6130    0.0460 C.ar    1  UNL1        0.0248
     10 C           3.3870   -0.4560    0.6460 C.ar    1  UNL1       -0.0526
     11 C           4.7570   -0.5310    0.8790 C.ar    1  UNL1       -0.0612
     12 C           5.4960    0.5550    0.4620 C.ar    1  UNL1       -0.0590
     13 C           4.9220    1.6510   -0.1480 C.ar    1  UNL1       -0.0261
     14 C           3.5710    1.6700   -0.3520 C.ar    1  UNL1        0.1298
     15 F           2.9720    2.7480   -0.9580 F       1  UNL1       -0.2051
     16 C          -1.4360   -1.6220    0.5170 C.ar    1  UNL1        0.0611
     17 C          -2.8310   -1.6860    0.3470 C.ar    1  UNL1        0.3183
     18 N          -3.5190   -2.8530    0.8070 N.pl3   1  UNL1        0.0836
     19 O          -4.6620   -2.8440    1.2720 O.2     1  UNL1        0.0416
     20 O          -2.9000   -4.0980    0.7720 O.co2   1  UNL1       -0.5759
     21 C          -3.5020   -0.6520   -0.2490 C.ar    1  UNL1        0.2092
     22 O          -4.8680   -0.6590   -0.4440 O.3     1  UNL1       -0.5007
     23 H          -5.3420    0.8052   -1.2179 H       1  UNL1        0.2954
     24 H          -0.8747    1.3125   -0.8173 H       1  UNL1        0.0663
     25 H           0.9558    1.4957    0.3341 H       1  UNL1        0.0749
     26 H           1.2061    0.6931   -1.2342 H       1  UNL1        0.0749
     27 H           2.7930   -1.2465    0.9414 H       1  UNL1        0.0622
     28 H           5.1920   -1.3481    1.3352 H       1  UNL1        0.0618
     29 H           6.5171    0.5480    0.6117 H       1  UNL1        0.0618
     30 H           5.5062    2.4475   -0.4469 H       1  UNL1        0.0646
     31 H          -0.9538   -2.4144    0.9693 H       1  UNL1        0.0724
     32 H          -5.2861    0.0710   -0.8567 H       1  UNL1        0.2924
@<TRIPOS>UNITY_ATOM_ATTR
18 1
charge 1
20 1
charge -1
@<TRIPOS>BOND
     1     1     2    2
     2     2     3    1
     3     2     4    1
     4     4     5   ar
     5     4    21   ar
     6     5     6   ar
     7     6     7    1
     8     6    16   ar
     9     7     8    1
    10     8     9    1
    11     9    10   ar
    12     9    14   ar
    13    10    11   ar
    14    11    12   ar
    15    12    13   ar
    16    13    14   ar
    17    14    15    1
    18    16    17   ar
    19    17    18    1
    20    17    21   ar
    21    18    19    2
    22    18    20    1
    23    21    22    1
    24     3    23    1
    25     5    24    1
    26     8    25    1
    27     8    26    1
    28    10    27    1
    29    11    28    1
    30    12    29    1
    31    13    30    1
    32    16    31    1
    33    22    32    1
@<TRIPOS>MOLECULE
../data/bude_mols_rdkit_confs2/molecule_46.pdb
 32 33 0 0 0
SMALL
GASTEIGER

@<TRIPOS>ATOM
      1 O          -5.5350    1.3020    1.4060 O.2     1  UNL1       -0.2450
      2 C          -4.3650    1.5160    1.2030 C.2     1  UNL1        0.3407
      3 O          -4.0050    2.8860    1.6710 O.3     1  UNL1       -0.4770
      4 C          -3.2800    0.7710    0.6510 C.ar    1  UNL1        0.1104
      5 C          -1.9910    1.2630    0.6600 C.ar    1  UNL1       -0.0020
      6 C          -0.9680    0.4740    0.2300 C.ar    1  UNL1        0.1284
      7 O           0.3470    1.0180    0.2940 O.3     1  UNL1       -0.4870
      8 C           1.3340    0.1920   -0.1200 C.3     1  UNL1        0.1173
      9 C           2.7790    0.3250   -0.1170 C.ar    1  UNL1        0.0248
     10 C           3.5530    1.2420   -0.7640 C.ar    1  UNL1       -0.0526
     11 C           4.9710    1.0280   -0.8020 C.ar    1  UNL1       -0.0612
     12 C           5.5350   -0.0580   -0.2070 C.ar    1  UNL1       -0.0590
     13 C           4.7620   -1.0310    0.4720 C.ar    1  UNL1       -0.0261
     14 C           3.4040   -0.7900    0.4930 C.ar    1  UNL1        0.1298
     15 F           2.6400   -1.7020    1.1950 F       1  UNL1       -0.2051
     16 C          -1.1590   -0.8280   -0.2300 C.ar    1  UNL1        0.0611
     17 C          -2.4860   -1.3170   -0.2380 C.ar    1  UNL1        0.3183
     18 N          -2.6410   -2.6010   -0.7530 N.pl3   1  UNL1        0.0836
     19 O          -1.7950   -2.9940   -1.6210 O.2     1  UNL1        0.0416
     20 O          -3.5820   -3.4980   -0.3890 O.co2   1  UNL1       -0.5759
     21 C          -3.4940   -0.5140    0.1950 C.ar    1  UNL1        0.2092
     22 O          -4.7890   -1.0270    0.1770 O.3     1  UNL1       -0.5007
     23 H          -3.1257    3.1964    1.5793 H       1  UNL1        0.2954
     24 H          -1.8035    2.2225    0.9904 H       1  UNL1        0.0663
     25 H           1.1003    0.0182   -1.1496 H       1  UNL1        0.0749
     26 H           1.2744   -0.4884    0.7037 H       1  UNL1        0.0749
     27 H           3.1299    2.0684   -1.2146 H       1  UNL1        0.0622
     28 H           5.5738    1.7095   -1.2890 H       1  UNL1        0.0618
     29 H           6.5592   -0.1764   -0.2520 H       1  UNL1        0.0618
     30 H           5.1840   -1.8601    0.9187 H       1  UNL1        0.0646
     31 H          -0.3681   -1.4086   -0.5501 H       1  UNL1        0.0724
     32 H          -5.5061   -0.4992    0.4689 H       1  UNL1        0.2924
@<TRIPOS>UNITY_ATOM_ATTR
18 1
charge 1
20 1
charge -1
@<TRIPOS>BOND
     1     1     2    2
     2     2     3    1
     3     2     4    1
     4     4     5   ar
     5     4    21   ar
     6     5     6   ar
     7     6     7    1
     8     6    16   ar
     9     7     8    1
    10     8     9    1
    11     9    10   ar
    12     9    14   ar
    13    10    11   ar
    14    11    12   ar
    15    12    13   ar
    16    13    14   ar
    17    14    15    1
    18    16    17   ar
    19    17    18    1
    20    17    21   ar
    21    18    19    2
    22    18    20    1
    23    21    22    1
    24     3    23    1
    25     5    24    1
    26     8    25    1
    27     8    26    1
    28    10    27    1
    29    11    28    1
    30    12    29    1
    31    13    30    1
    32    16    31    1
    33    22    32    1
@<TRIPOS>MOLECULE
../data/bude_mols_rdkit_confs2/molecule_46.pdb
 32 33 0 0 0
SMALL
GASTEIGER

@<TRIPOS>ATOM
      1 O           3.4890   -2.8560    0.0220 O.2     1  UNL1       -0.2450
      2 C           3.9400   -1.6560    0.0610 C.2     1  UNL1        0.3407
      3 O           5.2970   -1.5290    0.2710 O.3     1  UNL1       -0.4770
      4 C           3.0360   -0.5480   -0.1140 C.ar    1  UNL1        0.1104
      5 C           1.6870   -0.8580   -0.2680 C.ar    1  UNL1       -0.0020
      6 C           0.7570    0.1480   -0.3900 C.ar    1  UNL1        0.1284
      7 O          -0.5700   -0.2690   -0.4960 O.3     1  UNL1       -0.4870
      8 C          -1.6490    0.6780   -0.5570 C.3     1  UNL1        0.1173
      9 C          -2.8460   -0.1830   -0.2740 C.ar    1  UNL1        0.0248
     10 C          -3.5350   -0.9580   -1.1350 C.ar    1  UNL1       -0.0526
     11 C          -4.7090   -1.6190   -0.7630 C.ar    1  UNL1       -0.0612
     12 C          -5.2000   -1.4940    0.5270 C.ar    1  UNL1       -0.0590
     13 C          -4.5200   -0.7190    1.4250 C.ar    1  UNL1       -0.0261
     14 C          -3.3890   -0.0920    1.0240 C.ar    1  UNL1        0.1298
     15 F          -2.6620    0.6750    1.9110 F       1  UNL1       -0.2051
     16 C           1.0750    1.4650   -0.3830 C.ar    1  UNL1        0.0611
     17 C           2.3990    1.8000   -0.2300 C.ar    1  UNL1        0.3183
     18 N           2.8080    3.1550   -0.1800 N.pl3   1  UNL1        0.0836
     19 O           2.0260    4.0720    0.1700 O.2     1  UNL1        0.0416
     20 O           4.1000    3.4590   -0.5350 O.co2   1  UNL1       -0.5759
     21 C           3.3700    0.7800   -0.0960 C.ar    1  UNL1        0.2092
     22 O           4.6670    1.1970    0.0490 O.3     1  UNL1       -0.5007
     23 H           5.6875   -0.6781    0.3098 H       1  UNL1        0.2954
     24 H           1.3846   -1.8444   -0.2906 H       1  UNL1        0.0663
     25 H          -1.7155    1.1280   -1.5255 H       1  UNL1        0.0749
     26 H          -1.5396    1.4969    0.1230 H       1  UNL1        0.0749
     27 H          -3.1846   -1.0668   -2.0996 H       1  UNL1        0.0622
     28 H          -5.2115   -2.2017   -1.4507 H       1  UNL1        0.0618
     29 H          -6.0670   -1.9793    0.8060 H       1  UNL1        0.0618
     30 H          -4.8632   -0.6137    2.3926 H       1  UNL1        0.0646
     31 H           0.3489    2.1907   -0.4888 H       1  UNL1        0.0724
     32 H           5.3541    0.5668    0.1421 H       1  UNL1        0.2924
@<TRIPOS>UNITY_ATOM_ATTR
18 1
charge 1
20 1
charge -1
@<TRIPOS>BOND
     1     1     2    2
     2     2     3    1
     3     2     4    1
     4     4     5   ar
     5     4    21   ar
     6     5     6   ar
     7     6     7    1
     8     6    16   ar
     9     7     8    1
    10     8     9    1
    11     9    10   ar
    12     9    14   ar
    13    10    11   ar
    14    11    12   ar
    15    12    13   ar
    16    13    14   ar
    17    14    15    1
    18    16    17   ar
    19    17    18    1
    20    17    21   ar
    21    18    19    2
    22    18    20    1
    23    21    22    1
    24     3    23    1
    25     5    24    1
    26     8    25    1
    27     8    26    1
    28    10    27    1
    29    11    28    1
    30    12    29    1
    31    13    30    1
    32    16    31    1
    33    22    32    1
@<TRIPOS>MOLECULE
../data/bude_mols_rdkit_confs2/molecule_46.pdb
 32 33 0 0 0
SMALL
GASTEIGER

@<TRIPOS>ATOM
      1 O          -3.6040    3.2210    0.1540 O.2     1  UNL1       -0.2450
      2 C          -3.8080    1.9940    0.4390 C.2     1  UNL1        0.3407
      3 O          -5.0060    1.7210    1.0340 O.3     1  UNL1       -0.4770
      4 C          -2.7600    1.0500    0.1040 C.ar    1  UNL1        0.1104
      5 C          -1.6030    1.5360   -0.5050 C.ar    1  UNL1       -0.0020
      6 C          -0.5590    0.7060   -0.8550 C.ar    1  UNL1        0.1284
      7 O           0.5220    1.2920   -1.4490 O.3     1  UNL1       -0.4870
      8 C           1.7030    0.7410   -1.8890 C.3     1  UNL1        0.1173
      9 C           2.5020    0.1670   -0.7910 C.ar    1  UNL1        0.0248
     10 C           2.1540    0.2540    0.5230 C.ar    1  UNL1       -0.0526
     11 C           2.9510   -0.2730    1.5420 C.ar    1  UNL1       -0.0612
     12 C           4.1310   -0.9070    1.2650 C.ar    1  UNL1       -0.0590
     13 C           4.4800   -0.9930   -0.0710 C.ar    1  UNL1       -0.0261
     14 C           3.7000   -0.4770   -1.0770 C.ar    1  UNL1        0.1298
     15 F           4.0700   -0.5750   -2.3760 F       1  UNL1       -0.2051
     16 C          -0.6840   -0.6590   -0.5850 C.ar    1  UNL1        0.0611
     17 C          -1.8010   -1.1760    0.0100 C.ar    1  UNL1        0.3183
     18 N          -1.9190   -2.5600    0.2820 N.pl3   1  UNL1        0.0836
     19 O          -1.3040   -3.4100   -0.4210 O.2     1  UNL1        0.0416
     20 O          -2.6860   -3.0850    1.2980 O.co2   1  UNL1       -0.5759
     21 C          -2.8320   -0.2960    0.3470 C.ar    1  UNL1        0.2092
     22 O          -3.9300   -0.8360    0.9370 O.3     1  UNL1       -0.5007
     23 H          -5.2217    0.8404    1.2705 H       1  UNL1        0.2954
     24 H          -1.5261    2.5466   -0.6994 H       1  UNL1        0.0663
     25 H           2.2791    1.5035   -2.3703 H       1  UNL1        0.0749
     26 H           1.4597   -0.0531   -2.5636 H       1  UNL1        0.0749
     27 H           1.2711    0.7255    0.7744 H       1  UNL1        0.0622
     28 H           2.6436   -0.1822    2.5230 H       1  UNL1        0.0618
     29 H           4.7273   -1.2990    2.0105 H       1  UNL1        0.0618
     30 H           5.3630   -1.4644   -0.3222 H       1  UNL1        0.0646
     31 H           0.0878   -1.2943   -0.8417 H       1  UNL1        0.0724
     32 H          -4.6484   -0.2864    1.1818 H       1  UNL1        0.2924
@<TRIPOS>UNITY_ATOM_ATTR
18 1
charge 1
20 1
charge -1
@<TRIPOS>BOND
     1     1     2    2
     2     2     3    1
     3     2     4    1
     4     4     5   ar
     5     4    21   ar
     6     5     6   ar
     7     6     7    1
     8     6    16   ar
     9     7     8    1
    10     8     9    1
    11     9    10   ar
    12     9    14   ar
    13    10    11   ar
    14    11    12   ar
    15    12    13   ar
    16    13    14   ar
    17    14    15    1
    18    16    17   ar
    19    17    18    1
    20    17    21   ar
    21    18    19    2
    22    18    20    1
    23    21    22    1
    24     3    23    1
    25     5    24    1
    26     8    25    1
    27     8    26    1
    28    10    27    1
    29    11    28    1
    30    12    29    1
    31    13    30    1
    32    16    31    1
    33    22    32    1
@<TRIPOS>MOLECULE
../data/bude_mols_rdkit_confs2/molecule_46.pdb
 32 33 0 0 0
SMALL
GASTEIGER

@<TRIPOS>ATOM
      1 O          -3.0240    2.3070    2.1610 O.2     1  UNL1       -0.2450
      2 C          -3.6380    1.5120    1.3600 C.2     1  UNL1        0.3407
      3 O          -5.0260    1.6610    1.4250 O.3     1  UNL1       -0.4770
      4 C          -2.9260    0.6050    0.5190 C.ar    1  UNL1        0.1104
      5 C          -1.5480    0.6900    0.5400 C.ar    1  UNL1       -0.0020
      6 C          -0.7330   -0.0830   -0.3210 C.ar    1  UNL1        0.1284
      7 O           0.6180    0.0720   -0.2170 O.3     1  UNL1       -0.4870
      8 C           1.6810   -0.3800   -0.9270 C.3     1  UNL1        0.1173
      9 C           2.9250    0.0080   -0.1310 C.ar    1  UNL1        0.0248
     10 C           3.3320   -0.8700    0.8660 C.ar    1  UNL1       -0.0526
     11 C           4.5380   -0.6660    1.5100 C.ar    1  UNL1       -0.0612
     12 C           5.3680    0.4130    1.1830 C.ar    1  UNL1       -0.0590
     13 C           4.8950    1.2370    0.1950 C.ar    1  UNL1       -0.0261
     14 C           3.7070    1.0600   -0.4650 C.ar    1  UNL1        0.1298
     15 F           3.3130    1.9450   -1.4160 F       1  UNL1       -0.2051
     16 C          -1.3770   -0.9350   -1.1860 C.ar    1  UNL1        0.0611
     17 C          -2.7710   -1.0230   -1.2010 C.ar    1  UNL1        0.3183
     18 N          -3.4140   -1.9330   -2.0780 N.pl3   1  UNL1        0.0836
     19 O          -2.8890   -2.2800   -3.1300 O.2     1  UNL1        0.0416
     20 O          -4.6410   -2.4040   -1.7010 O.co2   1  UNL1       -0.5759
     21 C          -3.5630   -0.2440   -0.3430 C.ar    1  UNL1        0.2092
     22 O          -4.9160   -0.4110   -0.4450 O.3     1  UNL1       -0.5007
     23 H          -5.5797    1.1327    0.8844 H       1  UNL1        0.2954
     24 H          -1.0978    1.3381    1.2050 H       1  UNL1        0.0663
     25 H           1.7023    0.0778   -1.8939 H       1  UNL1        0.0749
     26 H           1.6283   -1.4385   -1.0743 H       1  UNL1        0.0749
     27 H           2.7359   -1.6717    1.1248 H       1  UNL1        0.0622
     28 H           4.8332   -1.3238    2.2484 H       1  UNL1        0.0618
     29 H           6.2722    0.5765    1.6527 H       1  UNL1        0.0618
     30 H           5.4747    2.0484   -0.0708 H       1  UNL1        0.0646
     31 H          -0.8232   -1.5176   -1.8332 H       1  UNL1        0.0724
     32 H          -5.4919    0.0839    0.1040 H       1  UNL1        0.2924
@<TRIPOS>UNITY_ATOM_ATTR
18 1
charge 1
20 1
charge -1
@<TRIPOS>BOND
     1     1     2    2
     2     2     3    1
     3     2     4    1
     4     4     5   ar
     5     4    21   ar
     6     5     6   ar
     7     6     7    1
     8     6    16   ar
     9     7     8    1
    10     8     9    1
    11     9    10   ar
    12     9    14   ar
    13    10    11   ar
    14    11    12   ar
    15    12    13   ar
    16    13    14   ar
    17    14    15    1
    18    16    17   ar
    19    17    18    1
    20    17    21   ar
    21    18    19    2
    22    18    20    1
    23    21    22    1
    24     3    23    1
    25     5    24    1
    26     8    25    1
    27     8    26    1
    28    10    27    1
    29    11    28    1
    30    12    29    1
    31    13    30    1
    32    16    31    1
    33    22    32    1
@<TRIPOS>MOLECULE
../data/bude_mols_rdkit_confs2/molecule_46.pdb
 32 33 0 0 0
SMALL
GASTEIGER

@<TRIPOS>ATOM
      1 O          -3.5520   -2.9770    0.7310 O.2     1  UNL1       -0.2450
      2 C          -4.0520   -1.8350    0.4110 C.2     1  UNL1        0.3407
      3 O          -5.3970   -1.7550    0.2100 O.3     1  UNL1       -0.4770
      4 C          -3.0690   -0.7690    0.2960 C.ar    1  UNL1        0.1104
      5 C          -1.7160   -1.0110    0.4260 C.ar    1  UNL1       -0.0020
      6 C          -0.7210   -0.1180    0.2690 C.ar    1  UNL1        0.1284
      7 O           0.5880   -0.2870    0.3340 O.3     1  UNL1       -0.4870
      8 C           1.5600   -1.2210    0.4980 C.3     1  UNL1        0.1173
      9 C           2.8390   -0.4790    0.2980 C.ar    1  UNL1        0.0248
     10 C           3.3250    0.4410    1.1660 C.ar    1  UNL1       -0.0526
     11 C           4.5800    1.0540    0.9550 C.ar    1  UNL1       -0.0612
     12 C           5.2960    0.6910   -0.1470 C.ar    1  UNL1       -0.0590
     13 C           4.8360   -0.2390   -1.0390 C.ar    1  UNL1       -0.0261
     14 C           3.5820   -0.8300   -0.8050 C.ar    1  UNL1        0.1298
     15 F           3.1420   -1.7380   -1.7050 F       1  UNL1       -0.2051
     16 C          -1.1360    1.2080   -0.0520 C.ar    1  UNL1        0.0611
     17 C          -2.4480    1.5350   -0.2070 C.ar    1  UNL1        0.3183
     18 N          -2.8680    2.8580   -0.5590 N.pl3   1  UNL1        0.0836
     19 O          -3.8100    3.0750   -1.3120 O.2     1  UNL1        0.0416
     20 O          -2.1570    3.9250   -0.0960 O.co2   1  UNL1       -0.5759
     21 C          -3.4340    0.5420   -0.0320 C.ar    1  UNL1        0.2092
     22 O          -4.7240    0.9290   -0.2120 O.3     1  UNL1       -0.5007
     23 H          -5.7879   -0.9362   -0.0239 H       1  UNL1        0.2954
     24 H          -1.4391   -1.9752    0.6683 H       1  UNL1        0.0663
     25 H           1.4594   -2.0011   -0.2274 H       1  UNL1        0.0749
     26 H           1.5112   -1.6905    1.4583 H       1  UNL1        0.0749
     27 H           2.7684    0.6984    1.9960 H       1  UNL1        0.0622
     28 H           4.9448    1.7571    1.6166 H       1  UNL1        0.0618
     29 H           6.2142    1.1317   -0.3137 H       1  UNL1        0.0618
     30 H           5.3968   -0.5007   -1.8648 H       1  UNL1        0.0646
     31 H          -0.4200    1.9417   -0.1703 H       1  UNL1        0.0724
     32 H          -5.4182    0.3084   -0.1078 H       1  UNL1        0.2924
@<TRIPOS>UNITY_ATOM_ATTR
18 1
charge 1
20 1
charge -1
@<TRIPOS>BOND
     1     1     2    2
     2     2     3    1
     3     2     4    1
     4     4     5   ar
     5     4    21   ar
     6     5     6   ar
     7     6     7    1
     8     6    16   ar
     9     7     8    1
    10     8     9    1
    11     9    10   ar
    12     9    14   ar
    13    10    11   ar
    14    11    12   ar
    15    12    13   ar
    16    13    14   ar
    17    14    15    1
    18    16    17   ar
    19    17    18    1
    20    17    21   ar
    21    18    19    2
    22    18    20    1
    23    21    22    1
    24     3    23    1
    25     5    24    1
    26     8    25    1
    27     8    26    1
    28    10    27    1
    29    11    28    1
    30    12    29    1
    31    13    30    1
    32    16    31    1
    33    22    32    1
@<TRIPOS>MOLECULE
../data/bude_mols_rdkit_confs2/molecule_46.pdb
 32 33 0 0 0
SMALL
GASTEIGER

@<TRIPOS>ATOM
      1 O          -2.7640    2.8440    1.9710 O.2     1  UNL1       -0.2450
      2 C          -3.4010    1.8350    1.5350 C.2     1  UNL1        0.3407
      3 O          -4.7370    1.7940    1.8580 O.3     1  UNL1       -0.4770
      4 C          -2.7110    0.8280    0.7570 C.ar    1  UNL1        0.1104
      5 C          -1.3900    0.9620    0.4250 C.ar    1  UNL1       -0.0020
      6 C          -0.7420    0.0130   -0.3920 C.ar    1  UNL1        0.1284
      7 O           0.5440    0.1640   -0.6610 O.3     1  UNL1       -0.4870
      8 C           1.5900   -0.2690   -1.4000 C.3     1  UNL1        0.1173
      9 C           2.8510    0.0610   -0.5920 C.ar    1  UNL1        0.0248
     10 C           3.2470   -0.9530    0.3070 C.ar    1  UNL1       -0.0526
     11 C           4.4590   -0.7790    0.9880 C.ar    1  UNL1       -0.0612
     12 C           5.2180    0.3550    0.7720 C.ar    1  UNL1       -0.0590
     13 C           4.8500    1.3520   -0.0990 C.ar    1  UNL1       -0.0261
     14 C           3.6330    1.1370   -0.7640 C.ar    1  UNL1        0.1298
     15 F           3.2280    2.1140   -1.6180 F       1  UNL1       -0.2051
     16 C          -1.4660   -1.0560   -0.8500 C.ar    1  UNL1        0.0611
     17 C          -2.8300   -1.2190   -0.5140 C.ar    1  UNL1        0.3183
     18 N          -3.4770   -2.3820   -0.9870 N.pl3   1  UNL1        0.0836
     19 O          -3.0860   -2.9250   -2.0360 O.2     1  UNL1        0.0416
     20 O          -4.5310   -2.9320   -0.3390 O.co2   1  UNL1       -0.5759
     21 C          -3.4030   -0.2680    0.2770 C.ar    1  UNL1        0.2092
     22 O          -4.7310   -0.3420    0.6470 O.3     1  UNL1       -0.5007
     23 H          -5.2672    1.0776    1.5687 H       1  UNL1        0.2954
     24 H          -0.8584    1.7726    0.7792 H       1  UNL1        0.0663
     25 H           1.6115    0.2353   -2.3434 H       1  UNL1        0.0749
     26 H           1.5185   -1.3178   -1.5998 H       1  UNL1        0.0749
     27 H           2.6649   -1.7919    0.4571 H       1  UNL1        0.0622
     28 H           4.7852   -1.4988    1.6518 H       1  UNL1        0.0618
     29 H           6.1045    0.4583    1.2901 H       1  UNL1        0.0618
     30 H           5.4250    2.1951   -0.2525 H       1  UNL1        0.0646
     31 H          -1.0066   -1.7567   -1.4525 H       1  UNL1        0.0724
     32 H          -5.1034    0.3234    1.1915 H       1  UNL1        0.2924
@<TRIPOS>UNITY_ATOM_ATTR
18 1
charge 1
20 1
charge -1
@<TRIPOS>BOND
     1     1     2    2
     2     2     3    1
     3     2     4    1
     4     4     5   ar
     5     4    21   ar
     6     5     6   ar
     7     6     7    1
     8     6    16   ar
     9     7     8    1
    10     8     9    1
    11     9    10   ar
    12     9    14   ar
    13    10    11   ar
    14    11    12   ar
    15    12    13   ar
    16    13    14   ar
    17    14    15    1
    18    16    17   ar
    19    17    18    1
    20    17    21   ar
    21    18    19    2
    22    18    20    1
    23    21    22    1
    24     3    23    1
    25     5    24    1
    26     8    25    1
    27     8    26    1
    28    10    27    1
    29    11    28    1
    30    12    29    1
    31    13    30    1
    32    16    31    1
    33    22    32    1
@<TRIPOS>MOLECULE
../data/bude_mols_rdkit_confs2/molecule_46.pdb
 32 33 0 0 0
SMALL
GASTEIGER

@<TRIPOS>ATOM
      1 O           5.1850   -1.2910    0.3100 O.2     1  UNL1       -0.2450
      2 C           3.9500   -1.4800    0.3590 C.2     1  UNL1        0.3407
      3 O           3.4970   -2.7830    0.5850 O.3     1  UNL1       -0.4770
      4 C           3.0100   -0.3830    0.1860 C.ar    1  UNL1        0.1104
      5 C           1.6580   -0.5590    0.2340 C.ar    1  UNL1       -0.0020
      6 C           0.7540    0.4680    0.0730 C.ar    1  UNL1        0.1284
      7 O          -0.6090    0.2920    0.1210 O.3     1  UNL1       -0.4870
      8 C          -1.2560   -0.9270    0.3360 C.3     1  UNL1        0.1173
      9 C          -2.7350   -0.7460    0.3280 C.ar    1  UNL1        0.0248
     10 C          -3.2900    0.5010    0.1270 C.ar    1  UNL1       -0.0526
     11 C          -4.6540    0.6760    0.1180 C.ar    1  UNL1       -0.0612
     12 C          -5.5050   -0.3920    0.3110 C.ar    1  UNL1       -0.0590
     13 C          -4.9500   -1.6500    0.5140 C.ar    1  UNL1       -0.0261
     14 C          -3.5660   -1.8270    0.5230 C.ar    1  UNL1        0.1298
     15 F          -3.0750   -3.0890    0.7290 F       1  UNL1       -0.2051
     16 C           1.2970    1.7120   -0.1440 C.ar    1  UNL1        0.0611
     17 C           2.6850    1.9340   -0.2000 C.ar    1  UNL1        0.3183
     18 N           3.1100    3.2670   -0.4340 N.pl3   1  UNL1        0.0836
     19 O           4.1440    3.6840    0.0860 O.2     1  UNL1        0.0416
     20 O           2.3590    4.1220   -1.2250 O.co2   1  UNL1       -0.5759
     21 C           3.5550    0.8940   -0.0370 C.ar    1  UNL1        0.2092
     22 O           4.9270    1.0250   -0.0800 O.3     1  UNL1       -0.5007
     23 H           2.5776   -2.9586    0.6274 H       1  UNL1        0.2954
     24 H           1.2938   -1.5103    0.3994 H       1  UNL1        0.0663
     25 H          -0.9555   -1.3219    1.2839 H       1  UNL1        0.0749
     26 H          -0.9875   -1.6025   -0.4492 H       1  UNL1        0.0749
     27 H          -2.6722    1.3147   -0.0188 H       1  UNL1        0.0622
     28 H          -5.0457    1.6184   -0.0351 H       1  UNL1        0.0618
     29 H          -6.5286   -0.2604    0.3048 H       1  UNL1        0.0618
     30 H          -5.5689   -2.4628    0.6598 H       1  UNL1        0.0646
     31 H           0.6612    2.5149   -0.2709 H       1  UNL1        0.0724
     32 H           5.4734    0.2732    0.0391 H       1  UNL1        0.2924
@<TRIPOS>UNITY_ATOM_ATTR
18 1
charge 1
20 1
charge -1
@<TRIPOS>BOND
     1     1     2    2
     2     2     3    1
     3     2     4    1
     4     4     5   ar
     5     4    21   ar
     6     5     6   ar
     7     6     7    1
     8     6    16   ar
     9     7     8    1
    10     8     9    1
    11     9    10   ar
    12     9    14   ar
    13    10    11   ar
    14    11    12   ar
    15    12    13   ar
    16    13    14   ar
    17    14    15    1
    18    16    17   ar
    19    17    18    1
    20    17    21   ar
    21    18    19    2
    22    18    20    1
    23    21    22    1
    24     3    23    1
    25     5    24    1
    26     8    25    1
    27     8    26    1
    28    10    27    1
    29    11    28    1
    30    12    29    1
    31    13    30    1
    32    16    31    1
    33    22    32    1
@<TRIPOS>MOLECULE
../data/bude_mols_rdkit_confs2/molecule_46.pdb
 32 33 0 0 0
SMALL
GASTEIGER

@<TRIPOS>ATOM
      1 O          -4.9190    1.6290   -2.0320 O.2     1  UNL1       -0.2450
      2 C          -3.6900    1.6370   -1.8160 C.2     1  UNL1        0.3407
      3 O          -2.9710    2.6750   -2.4130 O.3     1  UNL1       -0.4770
      4 C          -2.9620    0.6780   -1.0150 C.ar    1  UNL1        0.1104
      5 C          -1.5710    0.8180   -0.8630 C.ar    1  UNL1       -0.0020
      6 C          -0.8060   -0.0450   -0.1230 C.ar    1  UNL1        0.1284
      7 O           0.5590    0.1570   -0.0190 O.3     1  UNL1       -0.4870
      8 C           1.4030   -0.6970    0.7290 C.3     1  UNL1        0.1173
      9 C           2.8050   -0.2170    0.6460 C.ar    1  UNL1        0.0248
     10 C           3.1240    0.9240   -0.0940 C.ar    1  UNL1       -0.0526
     11 C           4.4150    1.3980   -0.1930 C.ar    1  UNL1       -0.0612
     12 C           5.4440    0.7190    0.4660 C.ar    1  UNL1       -0.0590
     13 C           5.1540   -0.4100    1.2020 C.ar    1  UNL1       -0.0261
     14 C           3.8370   -0.8550    1.2770 C.ar    1  UNL1        0.1298
     15 F           3.6150   -1.9660    2.0130 F       1  UNL1       -0.2051
     16 C          -1.4730   -1.0850    0.4840 C.ar    1  UNL1        0.0611
     17 C          -2.8310   -1.2460    0.3520 C.ar    1  UNL1        0.3183
     18 N          -3.5280   -2.3250    0.9800 N.pl3   1  UNL1        0.0836
     19 O          -2.9410   -3.3790    1.2180 O.2     1  UNL1        0.0416
     20 O          -4.8480   -2.1880    1.3170 O.co2   1  UNL1       -0.5759
     21 C          -3.6210   -0.3600   -0.4080 C.ar    1  UNL1        0.2092
     22 O          -4.9770   -0.5940   -0.4880 O.3     1  UNL1       -0.5007
     23 H          -2.0443    2.7353   -2.2881 H       1  UNL1        0.2954
     24 H          -1.1034    1.6096   -1.3318 H       1  UNL1        0.0663
     25 H           1.3435   -1.6898    0.3344 H       1  UNL1        0.0749
     26 H           1.0893   -0.6962    1.7520 H       1  UNL1        0.0749
     27 H           2.3683    1.4290   -0.5828 H       1  UNL1        0.0622
     28 H           4.6193    2.2443   -0.7472 H       1  UNL1        0.0618
     29 H           6.4155    1.0611    0.4019 H       1  UNL1        0.0618
     30 H           5.9054   -0.9200    1.6923 H       1  UNL1        0.0646
     31 H          -0.9394   -1.7609    1.0527 H       1  UNL1        0.0724
     32 H          -5.5230   -0.0190   -0.9872 H       1  UNL1        0.2924
@<TRIPOS>UNITY_ATOM_ATTR
18 1
charge 1
20 1
charge -1
@<TRIPOS>BOND
     1     1     2    2
     2     2     3    1
     3     2     4    1
     4     4     5   ar
     5     4    21   ar
     6     5     6   ar
     7     6     7    1
     8     6    16   ar
     9     7     8    1
    10     8     9    1
    11     9    10   ar
    12     9    14   ar
    13    10    11   ar
    14    11    12   ar
    15    12    13   ar
    16    13    14   ar
    17    14    15    1
    18    16    17   ar
    19    17    18    1
    20    17    21   ar
    21    18    19    2
    22    18    20    1
    23    21    22    1
    24     3    23    1
    25     5    24    1
    26     8    25    1
    27     8    26    1
    28    10    27    1
    29    11    28    1
    30    12    29    1
    31    13    30    1
    32    16    31    1
    33    22    32    1
@<TRIPOS>MOLECULE
../data/bude_mols_rdkit_confs2/molecule_46.pdb
 32 33 0 0 0
SMALL
GASTEIGER

@<TRIPOS>ATOM
      1 O          -2.1100    2.9020   -1.0730 O.2     1  UNL1       -0.2450
      2 C          -3.0080    2.1230   -0.5940 C.2     1  UNL1        0.3407
      3 O          -4.2490    2.6530   -0.4780 O.3     1  UNL1       -0.4770
      4 C          -2.6190    0.7490   -0.2010 C.ar    1  UNL1        0.1104
      5 C          -1.2860    0.4590   -0.4990 C.ar    1  UNL1       -0.0020
      6 C          -0.8010   -0.8390   -0.2780 C.ar    1  UNL1        0.1284
      7 O           0.4360   -1.0820   -0.6120 O.3     1  UNL1       -0.4870
      8 C           1.6410   -0.8670   -1.0380 C.3     1  UNL1        0.1173
      9 C           2.7430   -0.1970   -0.3260 C.ar    1  UNL1        0.0248
     10 C           3.0050    1.1210   -0.0900 C.ar    1  UNL1       -0.0526
     11 C           4.1880    1.6230    0.4850 C.ar    1  UNL1       -0.0612
     12 C           5.1600    0.7270    0.8410 C.ar    1  UNL1       -0.0590
     13 C           4.9360   -0.6100    0.6270 C.ar    1  UNL1       -0.0261
     14 C           3.7880   -1.0710    0.0790 C.ar    1  UNL1        0.1298
     15 F           3.5350   -2.3910   -0.1230 F       1  UNL1       -0.2051
     16 C          -1.6690   -1.7980    0.2570 C.ar    1  UNL1        0.0611
     17 C          -2.9970   -1.4590    0.5330 C.ar    1  UNL1        0.3183
     18 N          -3.9290   -2.3810    1.0940 N.pl3   1  UNL1        0.0836
     19 O          -4.8580   -1.9700    1.8100 O.2     1  UNL1        0.0416
     20 O          -3.8260   -3.7170    0.8310 O.co2   1  UNL1       -0.5759
     21 C          -3.4700   -0.1760    0.3050 C.ar    1  UNL1        0.2092
     22 O          -4.7880    0.1450    0.5860 O.3     1  UNL1       -0.5007
     23 H          -4.9497    2.1343   -0.1345 H       1  UNL1        0.2954
     24 H          -0.6647    1.1909   -0.8774 H       1  UNL1        0.0663
     25 H           1.5147   -0.3015   -1.9376 H       1  UNL1        0.0749
     26 H           2.0092   -1.8710   -1.0027 H       1  UNL1        0.0749
     27 H           2.2781    1.8044   -0.3540 H       1  UNL1        0.0622
     28 H           4.3185    2.6359    0.6337 H       1  UNL1        0.0618
     29 H           6.0446    1.0509    1.2624 H       1  UNL1        0.0618
     30 H           5.6682   -1.2869    0.8931 H       1  UNL1        0.0646
     31 H          -1.3293   -2.7537    0.4474 H       1  UNL1        0.0724
     32 H          -5.1021    1.0139    0.4298 H       1  UNL1        0.2924
@<TRIPOS>UNITY_ATOM_ATTR
18 1
charge 1
20 1
charge -1
@<TRIPOS>BOND
     1     1     2    2
     2     2     3    1
     3     2     4    1
     4     4     5   ar
     5     4    21   ar
     6     5     6   ar
     7     6     7    1
     8     6    16   ar
     9     7     8    1
    10     8     9    1
    11     9    10   ar
    12     9    14   ar
    13    10    11   ar
    14    11    12   ar
    15    12    13   ar
    16    13    14   ar
    17    14    15    1
    18    16    17   ar
    19    17    18    1
    20    17    21   ar
    21    18    19    2
    22    18    20    1
    23    21    22    1
    24     3    23    1
    25     5    24    1
    26     8    25    1
    27     8    26    1
    28    10    27    1
    29    11    28    1
    30    12    29    1
    31    13    30    1
    32    16    31    1
    33    22    32    1
@<TRIPOS>MOLECULE
../data/bude_mols_rdkit_confs2/molecule_46.pdb
 32 33 0 0 0
SMALL
GASTEIGER

@<TRIPOS>ATOM
      1 O          -2.5530    2.2960   -2.0180 O.2     1  UNL1       -0.2450
      2 C          -3.3520    1.5350   -1.3830 C.2     1  UNL1        0.3407
      3 O          -4.6800    1.7850   -1.6200 O.3     1  UNL1       -0.4770
      4 C          -2.7990    0.5130   -0.5020 C.ar    1  UNL1        0.1104
      5 C          -1.4160    0.4230   -0.4010 C.ar    1  UNL1       -0.0020
      6 C          -0.7530   -0.4890    0.3880 C.ar    1  UNL1        0.1284
      7 O           0.6340   -0.5450    0.4610 O.3     1  UNL1       -0.4870
      8 C           1.3640    0.3710   -0.3060 C.3     1  UNL1        0.1173
      9 C           2.8220    0.2260   -0.1570 C.ar    1  UNL1        0.0248
     10 C           3.4210   -0.7160    0.6560 C.ar    1  UNL1       -0.0526
     11 C           4.7940   -0.8230    0.7710 C.ar    1  UNL1       -0.0612
     12 C           5.6290    0.0190    0.0690 C.ar    1  UNL1       -0.0590
     13 C           5.0490    0.9660   -0.7480 C.ar    1  UNL1       -0.0261
     14 C           3.6640    1.0640   -0.8560 C.ar    1  UNL1        0.1298
     15 F           3.1150    1.9960   -1.6590 F       1  UNL1       -0.2051
     16 C          -1.5560   -1.3470    1.1060 C.ar    1  UNL1        0.0611
     17 C          -2.9110   -1.3270    1.0640 C.ar    1  UNL1        0.3183
     18 N          -3.7410   -2.2110    1.8030 N.pl3   1  UNL1        0.0836
     19 O          -3.3680   -2.7150    2.8770 O.2     1  UNL1        0.0416
     20 O          -4.9850   -2.5320    1.3430 O.co2   1  UNL1       -0.5759
     21 C          -3.5340   -0.3700    0.2370 C.ar    1  UNL1        0.2092
     22 O          -4.9010   -0.3610    0.2050 O.3     1  UNL1       -0.5007
     23 H          -5.3369    1.2710   -1.1932 H       1  UNL1        0.2954
     24 H          -0.8485    1.0839   -0.9543 H       1  UNL1        0.0663
     25 H           1.0889    1.3605   -0.0057 H       1  UNL1        0.0749
     26 H           1.1304    0.1810   -1.3328 H       1  UNL1        0.0749
     27 H           2.8234   -1.3615    1.1956 H       1  UNL1        0.0622
     28 H           5.1990   -1.5424    1.3903 H       1  UNL1        0.0618
     29 H           6.6548   -0.0568    0.1521 H       1  UNL1        0.0618
     30 H           5.6488    1.6105   -1.2864 H       1  UNL1        0.0646
     31 H          -1.0993   -2.0466    1.7119 H       1  UNL1        0.0724
     32 H          -5.3530    0.2596   -0.3322 H       1  UNL1        0.2924
@<TRIPOS>UNITY_ATOM_ATTR
18 1
charge 1
20 1
charge -1
@<TRIPOS>BOND
     1     1     2    2
     2     2     3    1
     3     2     4    1
     4     4     5   ar
     5     4    21   ar
     6     5     6   ar
     7     6     7    1
     8     6    16   ar
     9     7     8    1
    10     8     9    1
    11     9    10   ar
    12     9    14   ar
    13    10    11   ar
    14    11    12   ar
    15    12    13   ar
    16    13    14   ar
    17    14    15    1
    18    16    17   ar
    19    17    18    1
    20    17    21   ar
    21    18    19    2
    22    18    20    1
    23    21    22    1
    24     3    23    1
    25     5    24    1
    26     8    25    1
    27     8    26    1
    28    10    27    1
    29    11    28    1
    30    12    29    1
    31    13    30    1
    32    16    31    1
    33    22    32    1
@<TRIPOS>MOLECULE
../data/bude_mols_rdkit_confs2/molecule_46.pdb
 32 33 0 0 0
SMALL
GASTEIGER

@<TRIPOS>ATOM
      1 O           3.3780    3.1890   -0.6860 O.2     1  UNL1       -0.2450
      2 C           3.9430    2.0550   -0.4500 C.2     1  UNL1        0.3407
      3 O           5.2960    2.0570   -0.4320 O.3     1  UNL1       -0.4770
      4 C           3.0400    0.9270   -0.2330 C.ar    1  UNL1        0.1104
      5 C           1.6510    1.1620   -0.2510 C.ar    1  UNL1       -0.0020
      6 C           0.7430    0.1700   -0.0160 C.ar    1  UNL1        0.1284
      7 O          -0.6080    0.4020   -0.0300 O.3     1  UNL1       -0.4870
      8 C          -1.4810   -0.6790    0.2610 C.3     1  UNL1        0.1173
      9 C          -2.8860   -0.2500    0.2270 C.ar    1  UNL1        0.0248
     10 C          -3.8530   -0.9380   -0.4590 C.ar    1  UNL1       -0.0526
     11 C          -5.1860   -0.4980   -0.3640 C.ar    1  UNL1       -0.0612
     12 C          -5.5490    0.5910    0.3820 C.ar    1  UNL1       -0.0590
     13 C          -4.5200    1.2600    1.0600 C.ar    1  UNL1       -0.0261
     14 C          -3.2170    0.8490    0.9840 C.ar    1  UNL1        0.1298
     15 F          -2.2700    1.5820    1.6870 F       1  UNL1       -0.2051
     16 C           1.2170   -1.0980    0.2440 C.ar    1  UNL1        0.0611
     17 C           2.5570   -1.3470    0.2620 C.ar    1  UNL1        0.3183
     18 N           3.0140   -2.6930    0.5140 N.pl3   1  UNL1        0.0836
     19 O           2.3480   -3.5240    1.1690 O.2     1  UNL1        0.0416
     20 O           4.2210   -3.0430    0.0020 O.co2   1  UNL1       -0.5759
     21 C           3.5000   -0.3410    0.0260 C.ar    1  UNL1        0.2092
     22 O           4.8500   -0.6760    0.0650 O.3     1  UNL1       -0.5007
     23 H           5.7635    1.2622   -0.2656 H       1  UNL1        0.2954
     24 H           1.3087    2.1154   -0.4483 H       1  UNL1        0.0663
     25 H          -1.2550   -1.0577    1.2359 H       1  UNL1        0.0749
     26 H          -1.3400   -1.4379   -0.4800 H       1  UNL1        0.0749
     27 H          -3.6087   -1.7605   -1.0324 H       1  UNL1        0.0622
     28 H          -5.9175   -1.0156   -0.8759 H       1  UNL1        0.0618
     29 H          -6.5306    0.9038    0.4423 H       1  UNL1        0.0618
     30 H          -4.7521    2.0864    1.6330 H       1  UNL1        0.0646
     31 H           0.5516   -1.8654    0.4266 H       1  UNL1        0.0724
     32 H           5.5003   -0.0194   -0.0899 H       1  UNL1        0.2924
@<TRIPOS>UNITY_ATOM_ATTR
18 1
charge 1
20 1
charge -1
@<TRIPOS>BOND
     1     1     2    2
     2     2     3    1
     3     2     4    1
     4     4     5   ar
     5     4    21   ar
     6     5     6   ar
     7     6     7    1
     8     6    16   ar
     9     7     8    1
    10     8     9    1
    11     9    10   ar
    12     9    14   ar
    13    10    11   ar
    14    11    12   ar
    15    12    13   ar
    16    13    14   ar
    17    14    15    1
    18    16    17   ar
    19    17    18    1
    20    17    21   ar
    21    18    19    2
    22    18    20    1
    23    21    22    1
    24     3    23    1
    25     5    24    1
    26     8    25    1
    27     8    26    1
    28    10    27    1
    29    11    28    1
    30    12    29    1
    31    13    30    1
    32    16    31    1
    33    22    32    1
@<TRIPOS>MOLECULE
../data/bude_mols_rdkit_confs2/molecule_46.pdb
 32 33 0 0 0
SMALL
GASTEIGER

@<TRIPOS>ATOM
      1 O           2.9380   -2.8400    1.6250 O.2     1  UNL1       -0.2450
      2 C           3.6120   -1.9140    1.1370 C.2     1  UNL1        0.3407
      3 O           4.9940   -2.0400    1.0210 O.3     1  UNL1       -0.4770
      4 C           2.9110   -0.7230    0.6810 C.ar    1  UNL1        0.1104
      5 C           1.5240   -0.7660    0.6120 C.ar    1  UNL1       -0.0020
      6 C           0.7720    0.2200    0.0150 C.ar    1  UNL1        0.1284
      7 O          -0.5700    0.0960   -0.0180 O.3     1  UNL1       -0.4870
      8 C          -1.5900    0.7560   -0.6310 C.3     1  UNL1        0.1173
      9 C          -2.8760    0.1440   -0.1680 C.ar    1  UNL1        0.0248
     10 C          -3.6780    0.7010    0.8080 C.ar    1  UNL1       -0.0526
     11 C          -4.9880    0.2080    1.0390 C.ar    1  UNL1       -0.0612
     12 C          -5.4170   -0.8390    0.2600 C.ar    1  UNL1       -0.0590
     13 C          -4.6070   -1.4000   -0.7130 C.ar    1  UNL1       -0.0261
     14 C          -3.3540   -0.9160   -0.9270 C.ar    1  UNL1        0.1298
     15 F          -2.5080   -1.4980   -1.8700 F       1  UNL1       -0.2051
     16 C           1.4370    1.3050   -0.5330 C.ar    1  UNL1        0.0611
     17 C           2.7940    1.3700   -0.4760 C.ar    1  UNL1        0.3183
     18 N           3.4130    2.5320   -1.0130 N.pl3   1  UNL1        0.0836
     19 O           2.7880    3.6070   -0.9600 O.2     1  UNL1        0.0416
     20 O           4.6590    2.4190   -1.5630 O.co2   1  UNL1       -0.5759
     21 C           3.5250    0.3570    0.1260 C.ar    1  UNL1        0.2092
     22 O           4.8960    0.4780    0.1530 O.3     1  UNL1       -0.5007
     23 H           5.4989   -1.3415    0.6533 H       1  UNL1        0.2954
     24 H           1.0352   -1.5744    1.0275 H       1  UNL1        0.0663
     25 H          -1.5014    0.6570   -1.6927 H       1  UNL1        0.0749
     26 H          -1.5622    1.7971   -0.3854 H       1  UNL1        0.0749
     27 H          -3.3204    1.4849    1.3760 H       1  UNL1        0.0622
     28 H          -5.5954    0.6201    1.7644 H       1  UNL1        0.0618
     29 H          -6.3666   -1.2169    0.4035 H       1  UNL1        0.0618
     30 H          -4.9559   -2.1895   -1.2787 H       1  UNL1        0.0646
     31 H           0.9025    2.0637   -0.9844 H       1  UNL1        0.0724
     32 H           5.4175   -0.1900    0.5527 H       1  UNL1        0.2924
@<TRIPOS>UNITY_ATOM_ATTR
18 1
charge 1
20 1
charge -1
@<TRIPOS>BOND
     1     1     2    2
     2     2     3    1
     3     2     4    1
     4     4     5   ar
     5     4    21   ar
     6     5     6   ar
     7     6     7    1
     8     6    16   ar
     9     7     8    1
    10     8     9    1
    11     9    10   ar
    12     9    14   ar
    13    10    11   ar
    14    11    12   ar
    15    12    13   ar
    16    13    14   ar
    17    14    15    1
    18    16    17   ar
    19    17    18    1
    20    17    21   ar
    21    18    19    2
    22    18    20    1
    23    21    22    1
    24     3    23    1
    25     5    24    1
    26     8    25    1
    27     8    26    1
    28    10    27    1
    29    11    28    1
    30    12    29    1
    31    13    30    1
    32    16    31    1
    33    22    32    1
@<TRIPOS>MOLECULE
../data/bude_mols_rdkit_confs2/molecule_46.pdb
 32 33 0 0 0
SMALL
GASTEIGER

@<TRIPOS>ATOM
      1 O          -5.4250    0.6650   -0.1060 O.2     1  UNL1       -0.2450
      2 C          -4.3610    1.2790   -0.0080 C.2     1  UNL1        0.3407
      3 O          -4.4470    2.6810    0.1350 O.3     1  UNL1       -0.4770
      4 C          -3.0100    0.6540   -0.0390 C.ar    1  UNL1        0.1104
      5 C          -1.9210    1.4900   -0.0660 C.ar    1  UNL1       -0.0020
      6 C          -0.6420    0.9600   -0.2460 C.ar    1  UNL1        0.1284
      7 O           0.3160    1.9890   -0.2650 O.3     1  UNL1       -0.4870
      8 C           1.6280    1.7660   -0.6840 C.3     1  UNL1        0.1173
      9 C           2.4300    0.7380   -0.1190 C.ar    1  UNL1        0.0248
     10 C           2.8140    0.5010    1.1510 C.ar    1  UNL1       -0.0526
     11 C           3.6860   -0.5250    1.5130 C.ar    1  UNL1       -0.0612
     12 C           4.2060   -1.3750    0.5650 C.ar    1  UNL1       -0.0590
     13 C           3.8490   -1.1790   -0.7510 C.ar    1  UNL1       -0.0261
     14 C           3.0020   -0.1680   -1.0820 C.ar    1  UNL1        0.1298
     15 F           2.5920    0.0400   -2.3840 F       1  UNL1       -0.2051
     16 C          -0.5180   -0.3670   -0.3710 C.ar    1  UNL1        0.0611
     17 C          -1.6060   -1.2790   -0.3440 C.ar    1  UNL1        0.3183
     18 N          -1.4130   -2.6650   -0.3660 N.pl3   1  UNL1        0.0836
     19 O          -0.4510   -3.1800   -0.9400 O.2     1  UNL1        0.0416
     20 O          -2.2910   -3.5610    0.2720 O.co2   1  UNL1       -0.5759
     21 C          -2.8670   -0.7300   -0.1800 C.ar    1  UNL1        0.2092
     22 O          -4.0400   -1.4600   -0.1550 O.3     1  UNL1       -0.5007
     23 H          -3.6660    3.1927    0.2133 H       1  UNL1        0.2954
     24 H          -2.0477    2.5080    0.0465 H       1  UNL1        0.0663
     25 H           2.1554    2.6825   -0.5207 H       1  UNL1        0.0749
     26 H           1.4900    1.4204   -1.6872 H       1  UNL1        0.0749
     27 H           2.4427    1.1117    1.8955 H       1  UNL1        0.0622
     28 H           3.9444   -0.6481    2.5045 H       1  UNL1        0.0618
     29 H           4.8463   -2.1389    0.8323 H       1  UNL1        0.0618
     30 H           4.2243   -1.7993   -1.4855 H       1  UNL1        0.0646
     31 H           0.4311   -0.7527   -0.4952 H       1  UNL1        0.0724
     32 H          -4.8611   -1.0235   -0.0401 H       1  UNL1        0.2924
@<TRIPOS>UNITY_ATOM_ATTR
18 1
charge 1
20 1
charge -1
@<TRIPOS>BOND
     1     1     2    2
     2     2     3    1
     3     2     4    1
     4     4     5   ar
     5     4    21   ar
     6     5     6   ar
     7     6     7    1
     8     6    16   ar
     9     7     8    1
    10     8     9    1
    11     9    10   ar
    12     9    14   ar
    13    10    11   ar
    14    11    12   ar
    15    12    13   ar
    16    13    14   ar
    17    14    15    1
    18    16    17   ar
    19    17    18    1
    20    17    21   ar
    21    18    19    2
    22    18    20    1
    23    21    22    1
    24     3    23    1
    25     5    24    1
    26     8    25    1
    27     8    26    1
    28    10    27    1
    29    11    28    1
    30    12    29    1
    31    13    30    1
    32    16    31    1
    33    22    32    1
@<TRIPOS>MOLECULE
../data/bude_mols_rdkit_confs2/molecule_46.pdb
 32 33 0 0 0
SMALL
GASTEIGER

@<TRIPOS>ATOM
      1 O          -3.5760   -0.0810    3.0990 O.2     1  UNL1       -0.2450
      2 C          -4.0850   -0.0870    1.9020 C.2     1  UNL1        0.3407
      3 O          -5.4030    0.1830    1.8360 O.3     1  UNL1       -0.4770
      4 C          -3.1740   -0.3480    0.8070 C.ar    1  UNL1        0.1104
      5 C          -1.7920   -0.2550    1.1740 C.ar    1  UNL1       -0.0020
      6 C          -0.8560   -0.2200    0.1780 C.ar    1  UNL1        0.1284
      7 O           0.4890   -0.1200    0.6010 O.3     1  UNL1       -0.4870
      8 C           1.5050   -0.2380   -0.3410 C.3     1  UNL1        0.1173
      9 C           2.8730    0.0120    0.1280 C.ar    1  UNL1        0.0248
     10 C           3.2790    1.2900    0.4110 C.ar    1  UNL1       -0.0526
     11 C           4.6170    1.6180    0.6370 C.ar    1  UNL1       -0.0612
     12 C           5.6130    0.6660    0.5950 C.ar    1  UNL1       -0.0590
     13 C           5.1970   -0.6170    0.3170 C.ar    1  UNL1       -0.0261
     14 C           3.8770   -0.9520    0.0830 C.ar    1  UNL1        0.1298
     15 F           3.4860   -2.2510   -0.1350 F       1  UNL1       -0.2051
     16 C          -1.1950   -0.2670   -1.1590 C.ar    1  UNL1        0.0611
     17 C          -2.5260   -0.3540   -1.5060 C.ar    1  UNL1        0.3183
     18 N          -2.9720   -0.3400   -2.8710 N.pl3   1  UNL1        0.0836
     19 O          -2.1760   -0.7070   -3.7370 O.2     1  UNL1        0.0416
     20 O          -4.2280    0.1030   -3.1800 O.co2   1  UNL1       -0.5759
     21 C          -3.5190   -0.4010   -0.5010 C.ar    1  UNL1        0.2092
     22 O          -4.8580   -0.5010   -0.8890 O.3     1  UNL1       -0.5007
     23 H          -5.8376    0.1959    1.0060 H       1  UNL1        0.2954
     24 H          -1.5100   -0.2154    2.1659 H       1  UNL1        0.0663
     25 H           1.2999    0.4579   -1.1275 H       1  UNL1        0.0749
     26 H           1.4938   -1.2658   -0.6383 H       1  UNL1        0.0749
     27 H           2.5693    2.0377    0.4588 H       1  UNL1        0.0622
     28 H           4.8668    2.5984    0.8407 H       1  UNL1        0.0618
     29 H           6.6045    0.8992    0.7609 H       1  UNL1        0.0618
     30 H           5.9065   -1.3656    0.2817 H       1  UNL1        0.0646
     31 H          -0.4640   -0.2375   -1.8869 H       1  UNL1        0.0724
     32 H          -5.5327   -0.5336   -0.2397 H       1  UNL1        0.2924
@<TRIPOS>UNITY_ATOM_ATTR
18 1
charge 1
20 1
charge -1
@<TRIPOS>BOND
     1     1     2    2
     2     2     3    1
     3     2     4    1
     4     4     5   ar
     5     4    21   ar
     6     5     6   ar
     7     6     7    1
     8     6    16   ar
     9     7     8    1
    10     8     9    1
    11     9    10   ar
    12     9    14   ar
    13    10    11   ar
    14    11    12   ar
    15    12    13   ar
    16    13    14   ar
    17    14    15    1
    18    16    17   ar
    19    17    18    1
    20    17    21   ar
    21    18    19    2
    22    18    20    1
    23    21    22    1
    24     3    23    1
    25     5    24    1
    26     8    25    1
    27     8    26    1
    28    10    27    1
    29    11    28    1
    30    12    29    1
    31    13    30    1
    32    16    31    1
    33    22    32    1
@<TRIPOS>MOLECULE
../data/bude_mols_rdkit_confs2/molecule_46.pdb
 32 33 0 0 0
SMALL
GASTEIGER

@<TRIPOS>ATOM
      1 O          -3.3690    3.3780    1.0550 O.2     1  UNL1       -0.2450
      2 C          -3.8330    2.2650    0.7100 C.2     1  UNL1        0.3407
      3 O          -5.2100    2.1330    0.6380 O.3     1  UNL1       -0.4770
      4 C          -2.9490    1.1500    0.3960 C.ar    1  UNL1        0.1104
      5 C          -1.5830    1.2660    0.4630 C.ar    1  UNL1       -0.0020
      6 C          -0.7520    0.2210    0.1680 C.ar    1  UNL1        0.1284
      7 O           0.6210    0.4210    0.2600 O.3     1  UNL1       -0.4870
      8 C           1.4580   -0.6630   -0.0480 C.3     1  UNL1        0.1173
      9 C           2.8770   -0.2360    0.1120 C.ar    1  UNL1        0.0248
     10 C           3.2220    1.0230    0.4980 C.ar    1  UNL1       -0.0526
     11 C           4.5690    1.3360    0.6220 C.ar    1  UNL1       -0.0612
     12 C           5.5380    0.3790    0.3550 C.ar    1  UNL1       -0.0590
     13 C           5.1550   -0.8880   -0.0350 C.ar    1  UNL1       -0.0261
     14 C           3.8300   -1.2080   -0.1600 C.ar    1  UNL1        0.1298
     15 F           3.4670   -2.4610   -0.5440 F       1  UNL1       -0.2051
     16 C          -1.2950   -0.9810   -0.2060 C.ar    1  UNL1        0.0611
     17 C          -2.6830   -1.1570   -0.2910 C.ar    1  UNL1        0.3183
     18 N          -3.1780   -2.4090   -0.6760 N.pl3   1  UNL1        0.0836
     19 O          -2.4380   -3.4040   -0.3760 O.2     1  UNL1        0.0416
     20 O          -4.3420   -2.6880   -1.3200 O.co2   1  UNL1       -0.5759
     21 C          -3.4760   -0.0850    0.0130 C.ar    1  UNL1        0.2092
     22 O          -4.8530   -0.1390   -0.0330 O.3     1  UNL1       -0.5007
     23 H          -5.5896    1.3150    0.3835 H       1  UNL1        0.2954
     24 H          -1.1707    2.1692    0.7445 H       1  UNL1        0.0663
     25 H           1.2876   -0.9731   -1.0578 H       1  UNL1        0.0749
     26 H           1.2488   -1.4814    0.6087 H       1  UNL1        0.0749
     27 H           2.4969    1.7306    0.6945 H       1  UNL1        0.0622
     28 H           4.8510    2.2848    0.9141 H       1  UNL1        0.0618
     29 H           6.5387    0.6135    0.4476 H       1  UNL1        0.0618
     30 H           5.8741   -1.6009   -0.2343 H       1  UNL1        0.0646
     31 H          -0.6699   -1.7713   -0.4292 H       1  UNL1        0.0724
     32 H          -5.3591    0.6193    0.1832 H       1  UNL1        0.2924
@<TRIPOS>UNITY_ATOM_ATTR
18 1
charge 1
20 1
charge -1
@<TRIPOS>BOND
     1     1     2    2
     2     2     3    1
     3     2     4    1
     4     4     5   ar
     5     4    21   ar
     6     5     6   ar
     7     6     7    1
     8     6    16   ar
     9     7     8    1
    10     8     9    1
    11     9    10   ar
    12     9    14   ar
    13    10    11   ar
    14    11    12   ar
    15    12    13   ar
    16    13    14   ar
    17    14    15    1
    18    16    17   ar
    19    17    18    1
    20    17    21   ar
    21    18    19    2
    22    18    20    1
    23    21    22    1
    24     3    23    1
    25     5    24    1
    26     8    25    1
    27     8    26    1
    28    10    27    1
    29    11    28    1
    30    12    29    1
    31    13    30    1
    32    16    31    1
    33    22    32    1
@<TRIPOS>MOLECULE
../data/bude_mols_rdkit_confs2/molecule_46.pdb
 32 33 0 0 0
SMALL
GASTEIGER

@<TRIPOS>ATOM
      1 O          -5.2060   -1.3040   -0.2910 O.2     1  UNL1       -0.2450
      2 C          -3.9870   -1.3910   -0.0890 C.2     1  UNL1        0.3407
      3 O          -3.5500   -2.6460    0.3920 O.3     1  UNL1       -0.4770
      4 C          -3.0390   -0.3180   -0.3140 C.ar    1  UNL1        0.1104
      5 C          -1.6740   -0.5450   -0.0450 C.ar    1  UNL1       -0.0020
      6 C          -0.7200    0.4190   -0.2320 C.ar    1  UNL1        0.1284
      7 O           0.6210    0.2460    0.0150 O.3     1  UNL1       -0.4870
      8 C           1.2300   -0.9090    0.4870 C.3     1  UNL1        0.1173
      9 C           2.6900   -0.6690    0.6140 C.ar    1  UNL1        0.0248
     10 C           3.2360    0.5290    0.2910 C.ar    1  UNL1       -0.0526
     11 C           4.6030    0.7250    0.4190 C.ar    1  UNL1       -0.0612
     12 C           5.4150   -0.2940    0.8740 C.ar    1  UNL1       -0.0590
     13 C           4.8830   -1.5210    1.2080 C.ar    1  UNL1       -0.0261
     14 C           3.5050   -1.6760    1.0650 C.ar    1  UNL1        0.1298
     15 F           2.9260   -2.8680    1.3810 F       1  UNL1       -0.2051
     16 C          -1.1680    1.6350   -0.7020 C.ar    1  UNL1        0.0611
     17 C          -2.4870    1.8940   -0.9750 C.ar    1  UNL1        0.3183
     18 N          -2.9140    3.1670   -1.4610 N.pl3   1  UNL1        0.0836
     19 O          -4.0240    3.6260   -1.1870 O.2     1  UNL1        0.0416
     20 O          -2.0760    3.9080   -2.2540 O.co2   1  UNL1       -0.5759
     21 C          -3.4620    0.8920   -0.7780 C.ar    1  UNL1        0.2092
     22 O          -4.7450    1.2360   -1.0740 O.3     1  UNL1       -0.5007
     23 H          -2.6411   -2.7893    0.5688 H       1  UNL1        0.2954
     24 H          -1.3834   -1.4711    0.3055 H       1  UNL1        0.0663
     25 H           1.0568   -1.7118   -0.1989 H       1  UNL1        0.0749
     26 H           0.8221   -1.1683    1.4416 H       1  UNL1        0.0749
     27 H           2.6345    1.2951   -0.0501 H       1  UNL1        0.0622
     28 H           5.0155    1.6383    0.1725 H       1  UNL1        0.0618
     29 H           6.4307   -0.1358    0.9651 H       1  UNL1        0.0618
     30 H           5.4789   -2.2914    1.5491 H       1  UNL1        0.0646
     31 H          -0.4778    2.3866   -0.8559 H       1  UNL1        0.0724
     32 H          -5.4349    0.6118   -0.9629 H       1  UNL1        0.2924
@<TRIPOS>UNITY_ATOM_ATTR
18 1
charge 1
20 1
charge -1
@<TRIPOS>BOND
     1     1     2    2
     2     2     3    1
     3     2     4    1
     4     4     5   ar
     5     4    21   ar
     6     5     6   ar
     7     6     7    1
     8     6    16   ar
     9     7     8    1
    10     8     9    1
    11     9    10   ar
    12     9    14   ar
    13    10    11   ar
    14    11    12   ar
    15    12    13   ar
    16    13    14   ar
    17    14    15    1
    18    16    17   ar
    19    17    18    1
    20    17    21   ar
    21    18    19    2
    22    18    20    1
    23    21    22    1
    24     3    23    1
    25     5    24    1
    26     8    25    1
    27     8    26    1
    28    10    27    1
    29    11    28    1
    30    12    29    1
    31    13    30    1
    32    16    31    1
    33    22    32    1
@<TRIPOS>MOLECULE
../data/bude_mols_rdkit_confs2/molecule_46.pdb
 32 33 0 0 0
SMALL
GASTEIGER

@<TRIPOS>ATOM
      1 O          -3.8110    3.1230   -0.8890 O.2     1  UNL1       -0.2450
      2 C          -4.1760    1.9970   -0.5030 C.2     1  UNL1        0.3407
      3 O          -5.5500    1.8650   -0.2520 O.3     1  UNL1       -0.4770
      4 C          -3.1890    0.9590   -0.3500 C.ar    1  UNL1        0.1104
      5 C          -1.8320    1.2580   -0.5110 C.ar    1  UNL1       -0.0020
      6 C          -0.8430    0.3500   -0.2700 C.ar    1  UNL1        0.1284
      7 O           0.5190    0.7170   -0.4640 O.3     1  UNL1       -0.4870
      8 C           1.4290   -0.1630    0.0420 C.3     1  UNL1        0.1173
      9 C           2.8580    0.0540   -0.1740 C.ar    1  UNL1        0.0248
     10 C           3.5310   -0.4710   -1.2380 C.ar    1  UNL1       -0.0526
     11 C           4.9150   -0.4600   -1.3380 C.ar    1  UNL1       -0.0612
     12 C           5.6740    0.1070   -0.3300 C.ar    1  UNL1       -0.0590
     13 C           5.0200    0.6590    0.7770 C.ar    1  UNL1       -0.0261
     14 C           3.6490    0.6330    0.8500 C.ar    1  UNL1        0.1298
     15 F           2.9230    1.2050    1.8680 F       1  UNL1       -0.2051
     16 C          -1.2020   -0.9400    0.1490 C.ar    1  UNL1        0.0611
     17 C          -2.5210   -1.2800    0.3160 C.ar    1  UNL1        0.3183
     18 N          -2.8310   -2.6310    0.6710 N.pl3   1  UNL1        0.0836
     19 O          -3.7980   -2.8710    1.3670 O.2     1  UNL1        0.0416
     20 O          -2.0380   -3.6840    0.2310 O.co2   1  UNL1       -0.5759
     21 C          -3.5140   -0.3480    0.0710 C.ar    1  UNL1        0.2092
     22 O          -4.8140   -0.7490    0.2470 O.3     1  UNL1       -0.5007
     23 H          -5.8960    1.0452    0.0414 H       1  UNL1        0.2954
     24 H          -1.5681    2.2049   -0.8252 H       1  UNL1        0.0663
     25 H           1.1962   -1.1207   -0.3745 H       1  UNL1        0.0749
     26 H           1.3209   -0.0452    1.1000 H       1  UNL1        0.0749
     27 H           2.9856   -0.8961   -2.0041 H       1  UNL1        0.0622
     28 H           5.3771   -0.8740   -2.1627 H       1  UNL1        0.0618
     29 H           6.7039    0.1226   -0.3933 H       1  UNL1        0.0618
     30 H           5.5687    1.0862    1.5395 H       1  UNL1        0.0646
     31 H          -0.4667   -1.6402    0.3335 H       1  UNL1        0.0724
     32 H          -5.5151   -0.1472    0.0912 H       1  UNL1        0.2924
@<TRIPOS>UNITY_ATOM_ATTR
18 1
charge 1
20 1
charge -1
@<TRIPOS>BOND
     1     1     2    2
     2     2     3    1
     3     2     4    1
     4     4     5   ar
     5     4    21   ar
     6     5     6   ar
     7     6     7    1
     8     6    16   ar
     9     7     8    1
    10     8     9    1
    11     9    10   ar
    12     9    14   ar
    13    10    11   ar
    14    11    12   ar
    15    12    13   ar
    16    13    14   ar
    17    14    15    1
    18    16    17   ar
    19    17    18    1
    20    17    21   ar
    21    18    19    2
    22    18    20    1
    23    21    22    1
    24     3    23    1
    25     5    24    1
    26     8    25    1
    27     8    26    1
    28    10    27    1
    29    11    28    1
    30    12    29    1
    31    13    30    1
    32    16    31    1
    33    22    32    1
@<TRIPOS>MOLECULE
../data/bude_mols_rdkit_confs2/molecule_46.pdb
 32 33 0 0 0
SMALL
GASTEIGER

@<TRIPOS>ATOM
      1 O          -4.9610    1.9980   -1.4730 O.2     1  UNL1       -0.2450
      2 C          -3.7150    1.9410   -1.5220 C.2     1  UNL1        0.3407
      3 O          -3.0510    2.7990   -2.3750 O.3     1  UNL1       -0.4770
      4 C          -2.9330    1.0110   -0.7190 C.ar    1  UNL1        0.1104
      5 C          -1.5660    0.9450   -0.7680 C.ar    1  UNL1       -0.0020
      6 C          -0.8190    0.0710   -0.0140 C.ar    1  UNL1        0.1284
      7 O           0.5610    0.0750   -0.1310 O.3     1  UNL1       -0.4870
      8 C           1.4200   -0.7630    0.5810 C.3     1  UNL1        0.1173
      9 C           2.8250   -0.4720    0.1950 C.ar    1  UNL1        0.0248
     10 C           3.1010    0.5040   -0.7390 C.ar    1  UNL1       -0.0526
     11 C           4.4060    0.7460   -1.0720 C.ar    1  UNL1       -0.0612
     12 C           5.4590    0.0420   -0.5000 C.ar    1  UNL1       -0.0590
     13 C           5.1940   -0.9320    0.4310 C.ar    1  UNL1       -0.0261
     14 C           3.8740   -1.1680    0.7600 C.ar    1  UNL1        0.1298
     15 F           3.6360   -2.1480    1.6940 F       1  UNL1       -0.2051
     16 C          -1.5170   -0.7680    0.8240 C.ar    1  UNL1        0.0611
     17 C          -2.9100   -0.7550    0.9260 C.ar    1  UNL1        0.3183
     18 N          -3.5160   -1.6670    1.8270 N.pl3   1  UNL1        0.0836
     19 O          -4.6230   -2.1750    1.6240 O.2     1  UNL1        0.0416
     20 O          -2.8430   -2.0130    2.9700 O.co2   1  UNL1       -0.5759
     21 C          -3.6230    0.1440    0.1460 C.ar    1  UNL1        0.2092
     22 O          -4.9940    0.2110    0.1960 O.3     1  UNL1       -0.5007
     23 H          -2.1159    2.7750   -2.4292 H       1  UNL1        0.2954
     24 H          -1.0693    1.5865   -1.4059 H       1  UNL1        0.0663
     25 H           1.1917   -1.7836    0.3549 H       1  UNL1        0.0749
     26 H           1.2953   -0.5946    1.6303 H       1  UNL1        0.0749
     27 H           2.3378    1.0418   -1.1786 H       1  UNL1        0.0622
     28 H           4.6153    1.4756   -1.7712 H       1  UNL1        0.0618
     29 H           6.4324    0.2496   -0.7728 H       1  UNL1        0.0618
     30 H           5.9569   -1.4703    0.8706 H       1  UNL1        0.0646
     31 H          -0.9871   -1.4375    1.4037 H       1  UNL1        0.0724
     32 H          -5.4528    0.8269   -0.3408 H       1  UNL1        0.2924
@<TRIPOS>UNITY_ATOM_ATTR
18 1
charge 1
20 1
charge -1
@<TRIPOS>BOND
     1     1     2    2
     2     2     3    1
     3     2     4    1
     4     4     5   ar
     5     4    21   ar
     6     5     6   ar
     7     6     7    1
     8     6    16   ar
     9     7     8    1
    10     8     9    1
    11     9    10   ar
    12     9    14   ar
    13    10    11   ar
    14    11    12   ar
    15    12    13   ar
    16    13    14   ar
    17    14    15    1
    18    16    17   ar
    19    17    18    1
    20    17    21   ar
    21    18    19    2
    22    18    20    1
    23    21    22    1
    24     3    23    1
    25     5    24    1
    26     8    25    1
    27     8    26    1
    28    10    27    1
    29    11    28    1
    30    12    29    1
    31    13    30    1
    32    16    31    1
    33    22    32    1
@<TRIPOS>MOLECULE
../data/bude_mols_rdkit_confs2/molecule_46.pdb
 32 33 0 0 0
SMALL
GASTEIGER

@<TRIPOS>ATOM
      1 O           2.8220    3.0820   -0.0480 O.2     1  UNL1       -0.2450
      2 C           3.4570    2.0120    0.0120 C.2     1  UNL1        0.3407
      3 O           4.8360    2.0840    0.0470 O.3     1  UNL1       -0.4770
      4 C           2.7600    0.7310    0.0430 C.ar    1  UNL1        0.1104
      5 C           1.3990    0.6540    0.0090 C.ar    1  UNL1       -0.0020
      6 C           0.7480   -0.5630    0.0390 C.ar    1  UNL1        0.1284
      7 O          -0.6520   -0.5960    0.0020 O.3     1  UNL1       -0.4870
      8 C          -1.3510    0.6050   -0.0650 C.3     1  UNL1        0.1173
      9 C          -2.8240    0.4180   -0.0970 C.ar    1  UNL1        0.0248
     10 C          -3.4120   -0.8300   -0.0620 C.ar    1  UNL1       -0.0526
     11 C          -4.7820   -0.9910   -0.0920 C.ar    1  UNL1       -0.0612
     12 C          -5.6150    0.1110   -0.1580 C.ar    1  UNL1       -0.0590
     13 C          -5.0090    1.3600   -0.1920 C.ar    1  UNL1       -0.0261
     14 C          -3.6440    1.5260   -0.1630 C.ar    1  UNL1        0.1298
     15 F          -3.0740    2.7760   -0.1980 F       1  UNL1       -0.2051
     16 C           1.4900   -1.7100    0.1040 C.ar    1  UNL1        0.0611
     17 C           2.8890   -1.6960    0.1420 C.ar    1  UNL1        0.3183
     18 N           3.6000   -2.9280    0.2070 N.pl3   1  UNL1        0.0836
     19 O           4.6700   -3.0410    0.8060 O.2     1  UNL1        0.0416
     20 O           3.0580   -4.0170   -0.4090 O.co2   1  UNL1       -0.5759
     21 C           3.4910   -0.4620    0.1100 C.ar    1  UNL1        0.2092
     22 O           4.8590   -0.3530    0.1420 O.3     1  UNL1       -0.5007
     23 H           5.3451    1.2987    0.0922 H       1  UNL1        0.2954
     24 H           0.8445    1.5230   -0.0401 H       1  UNL1        0.0663
     25 H          -1.0537    1.1235   -0.9525 H       1  UNL1        0.0749
     26 H          -1.1180    1.1607    0.8192 H       1  UNL1        0.0749
     27 H          -2.8099   -1.6666   -0.0120 H       1  UNL1        0.0622
     28 H          -5.1876   -1.9396   -0.0650 H       1  UNL1        0.0618
     29 H          -6.6417    0.0096   -0.1810 H       1  UNL1        0.0618
     30 H          -5.6080    2.1989   -0.2411 H       1  UNL1        0.0646
     31 H           1.0008   -2.6184    0.1258 H       1  UNL1        0.0724
     32 H           5.2623    0.4925    0.1198 H       1  UNL1        0.2924
@<TRIPOS>UNITY_ATOM_ATTR
18 1
charge 1
20 1
charge -1
@<TRIPOS>BOND
     1     1     2    2
     2     2     3    1
     3     2     4    1
     4     4     5   ar
     5     4    21   ar
     6     5     6   ar
     7     6     7    1
     8     6    16   ar
     9     7     8    1
    10     8     9    1
    11     9    10   ar
    12     9    14   ar
    13    10    11   ar
    14    11    12   ar
    15    12    13   ar
    16    13    14   ar
    17    14    15    1
    18    16    17   ar
    19    17    18    1
    20    17    21   ar
    21    18    19    2
    22    18    20    1
    23    21    22    1
    24     3    23    1
    25     5    24    1
    26     8    25    1
    27     8    26    1
    28    10    27    1
    29    11    28    1
    30    12    29    1
    31    13    30    1
    32    16    31    1
    33    22    32    1
