@<TRIPOS>MOLECULE
../data/bude_mols_rdkit_confs2/molecule_18.pdb
 43 45 0 0 0
SMALL
GASTEIGER

@<TRIPOS>ATOM
      1  C1        -5.3520   -1.2840   -2.0210 C.3     1  UNL1       -0.0586
      2  C2        -4.9320    0.0510   -1.4380 C.3     1  UNL1       -0.0215
      3  C3        -6.0960    0.5430   -0.5980 C.3     1  UNL1       -0.0586
      4  C4        -3.7490   -0.0960   -0.5450 C.ar    1  UNL1       -0.0430
      5  C5        -3.8590   -0.9500    0.5350 C.ar    1  UNL1       -0.0582
      6  C6        -2.7950   -1.1200    1.3880 C.ar    1  UNL1       -0.0597
      7  C7        -1.6060   -0.4050    1.1260 C.ar    1  UNL1       -0.0405
      8  C8        -1.4800    0.4430    0.0620 C.ar    1  UNL1        0.0337
      9  N1        -0.2940    1.1550   -0.2260 N.am    1  UNL1       -0.2852
     10  C9         0.9650    0.9480    0.3650 C.2     1  UNL1        0.2231
     11  O1         1.1190    0.0650    1.2270 O.2     1  UNL1       -0.2751
     12  C10        2.1360    1.8130   -0.0610 C.3     1  UNL1        0.0688
     13  C11        3.2900    1.3970    0.6880 C.ar    1  UNL1        0.0780
     14  N2         3.7230    2.1490    1.7170 N.ar    1  UNL1       -0.1748
     15  N3         4.7740    1.8200    2.4400 N.ar    1  UNL1       -0.2425
     16  C12        5.4860    0.7090    2.1980 C.ar    1  UNL1        0.2725
     17  O2         6.4800    0.4120    2.8930 O.2     1  UNL1       -0.2658
     18  C13        5.1070   -0.1100    1.1640 C.ar    1  UNL1        0.0496
     19  C14        5.7890   -1.2670    0.8550 C.ar    1  UNL1       -0.0487
     20  C15        5.3490   -2.0390   -0.1980 C.ar    1  UNL1       -0.0610
     21  C16        4.2550   -1.6820   -0.9390 C.ar    1  UNL1       -0.0611
     22  C17        3.5610   -0.5310   -0.6460 C.ar    1  UNL1       -0.0521
     23  C18        4.0100    0.2390    0.4140 C.ar    1  UNL1        0.0108
     24  C19       -2.5910    0.5930   -0.7920 C.ar    1  UNL1       -0.0370
     25 H          -6.2018   -1.1444   -2.6560 H       1  UNL1        0.0235
     26 H          -5.6060   -1.9556   -1.2277 H       1  UNL1        0.0235
     27 H          -4.5446   -1.6942   -2.5908 H       1  UNL1        0.0235
     28 H          -4.6750    0.7247   -2.2285 H       1  UNL1        0.0343
     29 H          -6.3058   -0.1690    0.1726 H       1  UNL1        0.0235
     30 H          -6.9592    0.6611   -1.2191 H       1  UNL1        0.0235
     31 H          -5.8437    1.4839   -0.1552 H       1  UNL1        0.0235
     32 H          -4.7403   -1.4605    0.7014 H       1  UNL1        0.0620
     33 H          -2.8633   -1.7541    2.1994 H       1  UNL1        0.0618
     34 H          -0.8023   -0.5274    1.7617 H       1  UNL1        0.0636
     35 H          -0.3550    1.8644   -0.9060 H       1  UNL1        0.1548
     36 H           1.9215    2.8411    0.1435 H       1  UNL1        0.0423
     37 H           2.3152    1.7061   -1.1105 H       1  UNL1        0.0423
     38 H           5.0455    2.4081    3.1814 H       1  UNL1        0.1921
     39 H           6.6159   -1.5506    1.4035 H       1  UNL1        0.0625
     40 H           5.8560   -2.9065   -0.4334 H       1  UNL1        0.0618
     41 H           3.9489   -2.2800   -1.7224 H       1  UNL1        0.0618
     42 H           2.7345   -0.2510   -1.1969 H       1  UNL1        0.0624
     43 H          -2.5320    1.2242   -1.6064 H       1  UNL1        0.0639
@<TRIPOS>BOND
     1     1     2    1
     2     2     3    1
     3     2     4    1
     4     4     5   ar
     5     4    24   ar
     6     5     6   ar
     7     6     7   ar
     8     7     8   ar
     9     8     9    1
    10     8    24   ar
    11     9    10   am
    12    10    11    2
    13    10    12    1
    14    12    13    1
    15    13    14   ar
    16    13    23   ar
    17    14    15   ar
    18    15    16   ar
    19    16    17    2
    20    16    18   ar
    21    18    19   ar
    22    18    23   ar
    23    19    20   ar
    24    20    21   ar
    25    21    22   ar
    26    22    23   ar
    27     1    25    1
    28     1    26    1
    29     1    27    1
    30     2    28    1
    31     3    29    1
    32     3    30    1
    33     3    31    1
    34     5    32    1
    35     6    33    1
    36     7    34    1
    37     9    35    1
    38    12    36    1
    39    12    37    1
    40    15    38    1
    41    19    39    1
    42    20    40    1
    43    21    41    1
    44    22    42    1
    45    24    43    1
@<TRIPOS>MOLECULE
../data/bude_mols_rdkit_confs2/molecule_18.pdb
 43 45 0 0 0
SMALL
GASTEIGER

@<TRIPOS>ATOM
      1  C1        -5.6110    1.4130   -0.4100 C.3     1  UNL1       -0.0586
      2  C2        -4.8400    0.5650    0.5980 C.3     1  UNL1       -0.0215
      3  C3        -5.7030   -0.4760    1.2530 C.3     1  UNL1       -0.0586
      4  C4        -3.7230   -0.0490   -0.1670 C.ar    1  UNL1       -0.0430
      5  C5        -3.9180   -1.1490   -0.9670 C.ar    1  UNL1       -0.0582
      6  C6        -2.9060   -1.6920   -1.7370 C.ar    1  UNL1       -0.0597
      7  C7        -1.6880   -1.0830   -1.6720 C.ar    1  UNL1       -0.0405
      8  C8        -1.4600    0.0500   -0.8600 C.ar    1  UNL1        0.0337
      9  N1        -0.2120    0.6510   -0.9660 N.am    1  UNL1       -0.2852
     10  C9         0.6800    1.0360    0.0940 C.2     1  UNL1        0.2231
     11  O1         0.4290    0.8570    1.2860 O.2     1  UNL1       -0.2751
     12  C10        1.9710    1.6880   -0.4030 C.3     1  UNL1        0.0688
     13  C11        3.0340    0.6640   -0.5130 C.ar    1  UNL1        0.0780
     14  N2         2.9750   -0.1530   -1.6160 N.ar    1  UNL1       -0.1748
     15  N3         3.8150   -1.1290   -1.7390 N.ar    1  UNL1       -0.2425
     16  C12        4.7740   -1.4230   -0.8530 C.ar    1  UNL1        0.2725
     17  O2         5.5830   -2.4070   -1.0210 O.2     1  UNL1       -0.2658
     18  C13        4.8700   -0.6200    0.2730 C.ar    1  UNL1        0.0496
     19  C14        5.8920   -0.8900    1.1660 C.ar    1  UNL1       -0.0487
     20  C15        6.0140   -0.0550    2.2590 C.ar    1  UNL1       -0.0610
     21  C16        5.1330    1.0110    2.4360 C.ar    1  UNL1       -0.0611
     22  C17        4.1310    1.2630    1.5520 C.ar    1  UNL1       -0.0521
     23  C18        3.9790    0.4330    0.4260 C.ar    1  UNL1        0.0108
     24  C19       -2.4790    0.5510   -0.1160 C.ar    1  UNL1       -0.0370
     25 H          -6.4358    1.8871    0.0797 H       1  UNL1        0.0235
     26 H          -5.9757    0.7872   -1.1976 H       1  UNL1        0.0235
     27 H          -4.9621    2.1591   -0.8187 H       1  UNL1        0.0235
     28 H          -4.4810    1.1670    1.4065 H       1  UNL1        0.0343
     29 H          -6.1061   -1.1269    0.5055 H       1  UNL1        0.0235
     30 H          -6.5030    0.0028    1.7780 H       1  UNL1        0.0235
     31 H          -5.1145   -1.0452    1.9419 H       1  UNL1        0.0235
     32 H          -4.8528   -1.5853   -0.9941 H       1  UNL1        0.0620
     33 H          -3.0652   -2.5194   -2.3329 H       1  UNL1        0.0618
     34 H          -0.9089   -1.4613   -2.2331 H       1  UNL1        0.0636
     35 H           0.1006    0.8364   -1.8809 H       1  UNL1        0.1548
     36 H           2.2764    2.4455    0.2883 H       1  UNL1        0.0423
     37 H           1.8002    2.1275   -1.3635 H       1  UNL1        0.0423
     38 H           3.7438   -1.6955   -2.5410 H       1  UNL1        0.1921
     39 H           6.5365   -1.6828    1.0211 H       1  UNL1        0.0625
     40 H           6.7626   -0.2212    2.9497 H       1  UNL1        0.0618
     41 H           5.2441    1.6242    3.2586 H       1  UNL1        0.0618
     42 H           3.4881    2.0555    1.7055 H       1  UNL1        0.0624
     43 H          -2.3255    1.3759    0.4848 H       1  UNL1        0.0639
@<TRIPOS>BOND
     1     1     2    1
     2     2     3    1
     3     2     4    1
     4     4     5   ar
     5     4    24   ar
     6     5     6   ar
     7     6     7   ar
     8     7     8   ar
     9     8     9    1
    10     8    24   ar
    11     9    10   am
    12    10    11    2
    13    10    12    1
    14    12    13    1
    15    13    14   ar
    16    13    23   ar
    17    14    15   ar
    18    15    16   ar
    19    16    17    2
    20    16    18   ar
    21    18    19   ar
    22    18    23   ar
    23    19    20   ar
    24    20    21   ar
    25    21    22   ar
    26    22    23   ar
    27     1    25    1
    28     1    26    1
    29     1    27    1
    30     2    28    1
    31     3    29    1
    32     3    30    1
    33     3    31    1
    34     5    32    1
    35     6    33    1
    36     7    34    1
    37     9    35    1
    38    12    36    1
    39    12    37    1
    40    15    38    1
    41    19    39    1
    42    20    40    1
    43    21    41    1
    44    22    42    1
    45    24    43    1
@<TRIPOS>MOLECULE
../data/bude_mols_rdkit_confs2/molecule_18.pdb
 43 45 0 0 0
SMALL
GASTEIGER

@<TRIPOS>ATOM
      1  C1        -6.4020    0.0130   -0.9250 C.3     1  UNL1       -0.0586
      2  C2        -5.3950    0.6940   -0.0640 C.3     1  UNL1       -0.0215
      3  C3        -6.0770    1.0740    1.2450 C.3     1  UNL1       -0.0586
      4  C4        -4.1860   -0.1330    0.1880 C.ar    1  UNL1       -0.0430
      5  C5        -4.2490   -1.3750    0.7740 C.ar    1  UNL1       -0.0582
      6  C6        -3.0920   -2.0870    0.9780 C.ar    1  UNL1       -0.0597
      7  C7        -1.8570   -1.5540    0.5940 C.ar    1  UNL1       -0.0405
      8  C8        -1.7490   -0.3170    0.0060 C.ar    1  UNL1        0.0337
      9  N1        -0.5460    0.2970   -0.3980 N.am    1  UNL1       -0.2852
     10  C9         0.7310   -0.1490   -0.1040 C.2     1  UNL1        0.2231
     11  O1         0.9240   -1.1730    0.5760 O.2     1  UNL1       -0.2751
     12  C10        1.9680    0.5640   -0.5790 C.3     1  UNL1        0.0688
     13  C11        3.1770   -0.1460   -0.1100 C.ar    1  UNL1        0.0780
     14  N2         3.1250   -1.2770    0.6420 N.ar    1  UNL1       -0.1748
     15  N3         4.2180   -1.8990    1.0530 N.ar    1  UNL1       -0.2425
     16  C12        5.4640   -1.4770    0.7710 C.ar    1  UNL1        0.2725
     17  O2         6.4970   -2.1020    1.1840 O.2     1  UNL1       -0.2658
     18  C13        5.5870   -0.3330    0.0110 C.ar    1  UNL1        0.0496
     19  C14        6.8490    0.1400   -0.3040 C.ar    1  UNL1       -0.0487
     20  C15        6.9140    1.2880   -1.0670 C.ar    1  UNL1       -0.0610
     21  C16        5.7870    1.9430   -1.5000 C.ar    1  UNL1       -0.0611
     22  C17        4.5360    1.4670   -1.1820 C.ar    1  UNL1       -0.0521
     23  C18        4.4410    0.3120   -0.4150 C.ar    1  UNL1        0.0108
     24  C19       -2.9700    0.3560   -0.1730 C.ar    1  UNL1       -0.0370
     25 H          -7.2438    0.6579   -1.0676 H       1  UNL1        0.0235
     26 H          -6.7220   -0.8919   -0.4521 H       1  UNL1        0.0235
     27 H          -5.9635   -0.2162   -1.8737 H       1  UNL1        0.0235
     28 H          -5.0420    1.5642   -0.5769 H       1  UNL1        0.0343
     29 H          -6.4206    0.1888    1.7382 H       1  UNL1        0.0235
     30 H          -6.9095    1.7144    1.0406 H       1  UNL1        0.0235
     31 H          -5.3797    1.5856    1.8751 H       1  UNL1        0.0235
     32 H          -5.1591   -1.7697    1.0586 H       1  UNL1        0.0620
     33 H          -3.1342   -3.0201    1.4169 H       1  UNL1        0.0618
     34 H          -1.0010   -2.1068    0.7573 H       1  UNL1        0.0636
     35 H          -0.6209    1.1169   -0.9379 H       1  UNL1        0.1548
     36 H           1.9715    1.5617   -0.1925 H       1  UNL1        0.0423
     37 H           1.9691    0.5873   -1.6487 H       1  UNL1        0.0423
     38 H           4.1139   -2.7147    1.5944 H       1  UNL1        0.1921
     39 H           7.7023   -0.3437    0.0170 H       1  UNL1        0.0625
     40 H           7.8398    1.6669   -1.3206 H       1  UNL1        0.0618
     41 H           5.8794    2.7993   -2.0686 H       1  UNL1        0.0618
     42 H           3.6872    1.9566   -1.5058 H       1  UNL1        0.0624
     43 H          -2.9412    1.2901   -0.6107 H       1  UNL1        0.0639
@<TRIPOS>BOND
     1     1     2    1
     2     2     3    1
     3     2     4    1
     4     4     5   ar
     5     4    24   ar
     6     5     6   ar
     7     6     7   ar
     8     7     8   ar
     9     8     9    1
    10     8    24   ar
    11     9    10   am
    12    10    11    2
    13    10    12    1
    14    12    13    1
    15    13    14   ar
    16    13    23   ar
    17    14    15   ar
    18    15    16   ar
    19    16    17    2
    20    16    18   ar
    21    18    19   ar
    22    18    23   ar
    23    19    20   ar
    24    20    21   ar
    25    21    22   ar
    26    22    23   ar
    27     1    25    1
    28     1    26    1
    29     1    27    1
    30     2    28    1
    31     3    29    1
    32     3    30    1
    33     3    31    1
    34     5    32    1
    35     6    33    1
    36     7    34    1
    37     9    35    1
    38    12    36    1
    39    12    37    1
    40    15    38    1
    41    19    39    1
    42    20    40    1
    43    21    41    1
    44    22    42    1
    45    24    43    1
@<TRIPOS>MOLECULE
../data/bude_mols_rdkit_confs2/molecule_18.pdb
 43 45 0 0 0
SMALL
GASTEIGER

@<TRIPOS>ATOM
      1  C1        -5.5780    1.1270    0.3410 C.3     1  UNL1       -0.0586
      2  C2        -5.0590   -0.2450   -0.1290 C.3     1  UNL1       -0.0215
      3  C3        -5.0610   -0.2450   -1.6130 C.3     1  UNL1       -0.0586
      4  C4        -3.7380   -0.4560    0.4750 C.ar    1  UNL1       -0.0430
      5  C5        -3.6780   -1.0790    1.7100 C.ar    1  UNL1       -0.0582
      6  C6        -2.4610   -1.3470    2.3430 C.ar    1  UNL1       -0.0597
      7  C7        -1.2700   -0.9920    1.7540 C.ar    1  UNL1       -0.0405
      8  C8        -1.3300   -0.3600    0.5060 C.ar    1  UNL1        0.0337
      9  N1        -0.0630   -0.0460   -0.0620 N.am    1  UNL1       -0.2852
     10  C9         0.2310    1.1350   -0.7430 C.2     1  UNL1        0.2231
     11  O1        -0.6500    2.0050   -0.8910 O.2     1  UNL1       -0.2751
     12  C10        1.6210    1.4170   -1.3130 C.3     1  UNL1        0.0688
     13  C11        2.6240    1.0520   -0.2860 C.ar    1  UNL1        0.0780
     14  N2         2.2180    1.1900    0.9990 N.ar    1  UNL1       -0.1748
     15  N3         2.9830    0.7910    1.9910 N.ar    1  UNL1       -0.2425
     16  C12        4.1780    0.2420    1.7610 C.ar    1  UNL1        0.2725
     17  O2         4.9010   -0.1380    2.7260 O.2     1  UNL1       -0.2658
     18  C13        4.6420    0.0810    0.4800 C.ar    1  UNL1        0.0496
     19  C14        5.8770   -0.4530    0.1850 C.ar    1  UNL1       -0.0487
     20  C15        6.3300   -0.5760   -1.1060 C.ar    1  UNL1       -0.0610
     21  C16        5.5290   -0.1580   -2.1350 C.ar    1  UNL1       -0.0611
     22  C17        4.2810    0.3810   -1.8840 C.ar    1  UNL1       -0.0521
     23  C18        3.8320    0.5050   -0.5920 C.ar    1  UNL1        0.0108
     24  C19       -2.5380   -0.1010   -0.1150 C.ar    1  UNL1       -0.0370
     25 H          -6.5426    1.3085   -0.0850 H       1  UNL1        0.0235
     26 H          -4.8994    1.8920    0.0261 H       1  UNL1        0.0235
     27 H          -5.6525    1.1336    1.4084 H       1  UNL1        0.0235
     28 H          -5.6744   -1.0634    0.1815 H       1  UNL1        0.0343
     29 H          -4.4549    0.5611   -1.9705 H       1  UNL1        0.0235
     30 H          -6.0628   -0.1227   -1.9683 H       1  UNL1        0.0235
     31 H          -4.6667   -1.1733   -1.9702 H       1  UNL1        0.0235
     32 H          -4.5568   -1.3533    2.1764 H       1  UNL1        0.0620
     33 H          -2.4561   -1.8163    3.2621 H       1  UNL1        0.0618
     34 H          -0.3665   -1.1841    2.2143 H       1  UNL1        0.0636
     35 H           0.6574   -0.7103    0.0327 H       1  UNL1        0.1548
     36 H           1.7101    2.4558   -1.5535 H       1  UNL1        0.0423
     37 H           1.7786    0.8455   -2.2037 H       1  UNL1        0.0423
     38 H           2.6697    0.8988    2.9181 H       1  UNL1        0.1921
     39 H           6.4814   -0.7709    0.9588 H       1  UNL1        0.0625
     40 H           7.2610   -0.9778   -1.2977 H       1  UNL1        0.0618
     41 H           5.8606   -0.2463   -3.1083 H       1  UNL1        0.0618
     42 H           3.6860    0.6906   -2.6684 H       1  UNL1        0.0624
     43 H          -2.5446    0.3657   -1.0354 H       1  UNL1        0.0639
@<TRIPOS>BOND
     1     1     2    1
     2     2     3    1
     3     2     4    1
     4     4     5   ar
     5     4    24   ar
     6     5     6   ar
     7     6     7   ar
     8     7     8   ar
     9     8     9    1
    10     8    24   ar
    11     9    10   am
    12    10    11    2
    13    10    12    1
    14    12    13    1
    15    13    14   ar
    16    13    23   ar
    17    14    15   ar
    18    15    16   ar
    19    16    17    2
    20    16    18   ar
    21    18    19   ar
    22    18    23   ar
    23    19    20   ar
    24    20    21   ar
    25    21    22   ar
    26    22    23   ar
    27     1    25    1
    28     1    26    1
    29     1    27    1
    30     2    28    1
    31     3    29    1
    32     3    30    1
    33     3    31    1
    34     5    32    1
    35     6    33    1
    36     7    34    1
    37     9    35    1
    38    12    36    1
    39    12    37    1
    40    15    38    1
    41    19    39    1
    42    20    40    1
    43    21    41    1
    44    22    42    1
    45    24    43    1
@<TRIPOS>MOLECULE
../data/bude_mols_rdkit_confs2/molecule_18.pdb
 43 45 0 0 0
SMALL
GASTEIGER

@<TRIPOS>ATOM
      1  C1        -5.3360    0.6710    1.3900 C.3     1  UNL1       -0.0586
      2  C2        -5.2960    0.2280   -0.0790 C.3     1  UNL1       -0.0215
      3  C3        -5.7490   -1.2170   -0.0910 C.3     1  UNL1       -0.0586
      4  C4        -3.9240    0.4100   -0.5540 C.ar    1  UNL1       -0.0430
      5  C5        -3.6860    1.2510   -1.6200 C.ar    1  UNL1       -0.0582
      6  C6        -2.3970    1.4250   -2.0700 C.ar    1  UNL1       -0.0597
      7  C7        -1.3320    0.7520   -1.4490 C.ar    1  UNL1       -0.0405
      8  C8        -1.5580   -0.0810   -0.3970 C.ar    1  UNL1        0.0337
      9  N1        -0.5370   -0.7900    0.2670 N.am    1  UNL1       -0.2852
     10  C9         0.8320   -0.8280   -0.0580 C.2     1  UNL1        0.2231
     11  O1         1.2570   -0.1860   -1.0340 O.2     1  UNL1       -0.2751
     12  C10        1.8140   -1.6400    0.7560 C.3     1  UNL1        0.0688
     13  C11        3.1720   -1.4990    0.1940 C.ar    1  UNL1        0.0780
     14  N2         3.7210   -2.4730   -0.5270 N.ar    1  UNL1       -0.1748
     15  N3         4.9530   -2.3430   -1.0370 N.ar    1  UNL1       -0.2425
     16  C12        5.6730   -1.2110   -0.8300 C.ar    1  UNL1        0.2725
     17  O2         6.8220   -1.1550   -1.3380 O.2     1  UNL1       -0.2658
     18  C13        5.1580   -0.1650   -0.0900 C.ar    1  UNL1        0.0496
     19  C14        5.8980    0.9770    0.1140 C.ar    1  UNL1       -0.0487
     20  C15        5.3650    2.0200    0.8600 C.ar    1  UNL1       -0.0610
     21  C16        4.0970    1.8860    1.3860 C.ar    1  UNL1       -0.0611
     22  C17        3.3870    0.7240    1.1590 C.ar    1  UNL1       -0.0521
     23  C18        3.8830   -0.3300    0.4230 C.ar    1  UNL1        0.0108
     24  C19       -2.8850   -0.2350    0.0360 C.ar    1  UNL1       -0.0370
     25 H          -6.3284    0.5511    1.7718 H       1  UNL1        0.0235
     26 H          -5.0485    1.6993    1.4604 H       1  UNL1        0.0235
     27 H          -4.6590    0.0714    1.9619 H       1  UNL1        0.0235
     28 H          -5.9331    0.7910   -0.7287 H       1  UNL1        0.0343
     29 H          -5.1203   -1.7933    0.5552 H       1  UNL1        0.0235
     30 H          -5.6855   -1.6024   -1.0871 H       1  UNL1        0.0235
     31 H          -6.7613   -1.2763    0.2505 H       1  UNL1        0.0235
     32 H          -4.4678    1.7460   -2.0768 H       1  UNL1        0.0620
     33 H          -2.2121    2.0531   -2.8677 H       1  UNL1        0.0618
     34 H          -0.3692    0.8905   -1.7937 H       1  UNL1        0.0636
     35 H          -0.8134   -1.3203    1.0490 H       1  UNL1        0.1548
     36 H           1.5263   -2.6704    0.7339 H       1  UNL1        0.0423
     37 H           1.8124   -1.2850    1.7654 H       1  UNL1        0.0423
     38 H           5.3403   -3.0763   -1.5676 H       1  UNL1        0.1921
     39 H           6.8459    1.0581   -0.2860 H       1  UNL1        0.0625
     40 H           5.9094    2.8823    1.0184 H       1  UNL1        0.0618
     41 H           3.6824    2.6482    1.9447 H       1  UNL1        0.0618
     42 H           2.4396    0.6408    1.5596 H       1  UNL1        0.0624
     43 H          -3.0778   -0.8620    0.8327 H       1  UNL1        0.0639
@<TRIPOS>BOND
     1     1     2    1
     2     2     3    1
     3     2     4    1
     4     4     5   ar
     5     4    24   ar
     6     5     6   ar
     7     6     7   ar
     8     7     8   ar
     9     8     9    1
    10     8    24   ar
    11     9    10   am
    12    10    11    2
    13    10    12    1
    14    12    13    1
    15    13    14   ar
    16    13    23   ar
    17    14    15   ar
    18    15    16   ar
    19    16    17    2
    20    16    18   ar
    21    18    19   ar
    22    18    23   ar
    23    19    20   ar
    24    20    21   ar
    25    21    22   ar
    26    22    23   ar
    27     1    25    1
    28     1    26    1
    29     1    27    1
    30     2    28    1
    31     3    29    1
    32     3    30    1
    33     3    31    1
    34     5    32    1
    35     6    33    1
    36     7    34    1
    37     9    35    1
    38    12    36    1
    39    12    37    1
    40    15    38    1
    41    19    39    1
    42    20    40    1
    43    21    41    1
    44    22    42    1
    45    24    43    1
@<TRIPOS>MOLECULE
../data/bude_mols_rdkit_confs2/molecule_18.pdb
 43 45 0 0 0
SMALL
GASTEIGER

@<TRIPOS>ATOM
      1  C1         4.8980   -0.6260   -1.5450 C.3     1  UNL1       -0.0586
      2  C2         3.8250    0.4400   -1.3160 C.3     1  UNL1       -0.0215
      3  C3         4.5110    1.7910   -1.3970 C.3     1  UNL1       -0.0586
      4  C4         3.3710    0.2780    0.1060 C.ar    1  UNL1       -0.0430
      5  C5         4.2970    0.4070    1.1040 C.ar    1  UNL1       -0.0582
      6  C6         3.8890    0.2580    2.4200 C.ar    1  UNL1       -0.0597
      7  C7         2.5620   -0.0150    2.6660 C.ar    1  UNL1       -0.0405
      8  C8         1.6010   -0.1510    1.6640 C.ar    1  UNL1        0.0337
      9  N1         0.2750   -0.4290    2.0670 N.am    1  UNL1       -0.2852
     10  C9        -0.8220   -0.7080    1.2460 C.2     1  UNL1        0.2231
     11  O1        -0.6900   -0.7330    0.0110 O.2     1  UNL1       -0.2751
     12  C10       -2.1970   -0.9880    1.7930 C.3     1  UNL1        0.0688
     13  C11       -3.1600   -1.2510    0.7260 C.ar    1  UNL1        0.0780
     14  N2        -3.5790   -2.4950    0.4490 N.ar    1  UNL1       -0.1748
     15  N3        -4.4550   -2.7450   -0.5200 N.ar    1  UNL1       -0.2425
     16  C12       -4.9860   -1.7740   -1.2930 C.ar    1  UNL1        0.2725
     17  O2        -5.8250   -2.0420   -2.2170 O.2     1  UNL1       -0.2658
     18  C13       -4.5950   -0.4750   -1.0570 C.ar    1  UNL1        0.0496
     19  C14       -5.1250    0.5300   -1.8330 C.ar    1  UNL1       -0.0487
     20  C15       -4.7480    1.8440   -1.6140 C.ar    1  UNL1       -0.0610
     21  C16       -3.8340    2.0840   -0.6000 C.ar    1  UNL1       -0.0611
     22  C17       -3.3090    1.0700    0.1720 C.ar    1  UNL1       -0.0521
     23  C18       -3.6730   -0.2260   -0.0340 C.ar    1  UNL1        0.0108
     24  C19        2.0400    0.0020    0.3810 C.ar    1  UNL1       -0.0370
     25 H           5.2605   -0.5572   -2.5494 H       1  UNL1        0.0235
     26 H           4.4770   -1.5963   -1.3834 H       1  UNL1        0.0235
     27 H           5.7071   -0.4701   -0.8624 H       1  UNL1        0.0235
     28 H           3.0217    0.3592   -2.0182 H       1  UNL1        0.0343
     29 H           5.3055    1.8311   -0.6814 H       1  UNL1        0.0235
     30 H           3.8020    2.5642   -1.1864 H       1  UNL1        0.0235
     31 H           4.9093    1.9304   -2.3803 H       1  UNL1        0.0235
     32 H           5.2835    0.6120    0.8808 H       1  UNL1        0.0620
     33 H           4.5629    0.3494    3.1962 H       1  UNL1        0.0618
     34 H           2.2614   -0.1252    3.6471 H       1  UNL1        0.0636
     35 H           0.1043   -0.4258    3.0366 H       1  UNL1        0.1548
     36 H          -2.5259   -0.1392    2.3554 H       1  UNL1        0.0423
     37 H          -2.1388   -1.8590    2.4118 H       1  UNL1        0.0423
     38 H          -4.7276   -3.6773   -0.6803 H       1  UNL1        0.1921
     39 H          -5.8030    0.3045   -2.5777 H       1  UNL1        0.0625
     40 H          -5.1323    2.6143   -2.1832 H       1  UNL1        0.0618
     41 H          -3.5364    3.0550   -0.4168 H       1  UNL1        0.0618
     42 H          -2.6308    1.2960    0.9163 H       1  UNL1        0.0624
     43 H           1.3697   -0.0893   -0.3984 H       1  UNL1        0.0639
@<TRIPOS>BOND
     1     1     2    1
     2     2     3    1
     3     2     4    1
     4     4     5   ar
     5     4    24   ar
     6     5     6   ar
     7     6     7   ar
     8     7     8   ar
     9     8     9    1
    10     8    24   ar
    11     9    10   am
    12    10    11    2
    13    10    12    1
    14    12    13    1
    15    13    14   ar
    16    13    23   ar
    17    14    15   ar
    18    15    16   ar
    19    16    17    2
    20    16    18   ar
    21    18    19   ar
    22    18    23   ar
    23    19    20   ar
    24    20    21   ar
    25    21    22   ar
    26    22    23   ar
    27     1    25    1
    28     1    26    1
    29     1    27    1
    30     2    28    1
    31     3    29    1
    32     3    30    1
    33     3    31    1
    34     5    32    1
    35     6    33    1
    36     7    34    1
    37     9    35    1
    38    12    36    1
    39    12    37    1
    40    15    38    1
    41    19    39    1
    42    20    40    1
    43    21    41    1
    44    22    42    1
    45    24    43    1
@<TRIPOS>MOLECULE
../data/bude_mols_rdkit_confs2/molecule_18.pdb
 43 45 0 0 0
SMALL
GASTEIGER

@<TRIPOS>ATOM
      1  C1        -5.2670   -1.8810   -0.1820 C.3     1  UNL1       -0.0586
      2  C2        -4.6010   -0.6260   -0.7110 C.3     1  UNL1       -0.0215
      3  C3        -5.7100    0.3490   -1.0980 C.3     1  UNL1       -0.0586
      4  C4        -3.8620   -0.0120    0.4280 C.ar    1  UNL1       -0.0430
      5  C5        -4.5430    0.4250    1.5430 C.ar    1  UNL1       -0.0582
      6  C6        -3.8910    1.0020    2.6120 C.ar    1  UNL1       -0.0597
      7  C7        -2.5340    1.1240    2.5150 C.ar    1  UNL1       -0.0405
      8  C8        -1.7890    0.6970    1.4050 C.ar    1  UNL1        0.0337
      9  N1        -0.3950    0.9180    1.4550 N.am    1  UNL1       -0.2852
     10  C9         0.5900    0.3280    0.6530 C.2     1  UNL1        0.2231
     11  O1         0.2450   -0.5040   -0.2180 O.2     1  UNL1       -0.2751
     12  C10        2.0410    0.6180    0.7570 C.3     1  UNL1        0.0688
     13  C11        2.8420   -0.1800   -0.1910 C.ar    1  UNL1        0.0780
     14  N2         2.3560   -1.1580   -0.9700 N.ar    1  UNL1       -0.1748
     15  N3         3.1220   -1.8530   -1.8020 N.ar    1  UNL1       -0.2425
     16  C12        4.4440   -1.6280   -1.9270 C.ar    1  UNL1        0.2725
     17  O2         5.1600   -2.3000   -2.7250 O.2     1  UNL1       -0.2658
     18  C13        5.0160   -0.6250   -1.1470 C.ar    1  UNL1        0.0496
     19  C14        6.3610   -0.3430   -1.2290 C.ar    1  UNL1       -0.0487
     20  C15        6.9180    0.6530   -0.4540 C.ar    1  UNL1       -0.0610
     21  C16        6.1200    1.3650    0.4020 C.ar    1  UNL1       -0.0611
     22  C17        4.7830    1.0840    0.4810 C.ar    1  UNL1       -0.0521
     23  C18        4.1910    0.0910   -0.2810 C.ar    1  UNL1        0.0108
     24  C19       -2.4780    0.1320    0.3740 C.ar    1  UNL1       -0.0370
     25 H          -5.8114   -2.3557   -0.9714 H       1  UNL1        0.0235
     26 H          -5.9392   -1.6217    0.6091 H       1  UNL1        0.0235
     27 H          -4.5204   -2.5514    0.1897 H       1  UNL1        0.0235
     28 H          -3.9567   -0.8404   -1.5379 H       1  UNL1        0.0343
     29 H          -6.3314    0.5382   -0.2477 H       1  UNL1        0.0235
     30 H          -6.2999   -0.0753   -1.8835 H       1  UNL1        0.0235
     31 H          -5.2761    1.2675   -1.4341 H       1  UNL1        0.0235
     32 H          -5.5688    0.3176    1.5790 H       1  UNL1        0.0620
     33 H          -4.4042    1.3266    3.4464 H       1  UNL1        0.0618
     34 H          -2.0272    1.5552    3.3038 H       1  UNL1        0.0636
     35 H          -0.0795    1.5604    2.1311 H       1  UNL1        0.1548
     36 H           2.3654    0.3970    1.7524 H       1  UNL1        0.0423
     37 H           2.1858    1.6510    0.5185 H       1  UNL1        0.0423
     38 H           2.7081   -2.5597   -2.3484 H       1  UNL1        0.1921
     39 H           6.9579   -0.8816   -1.8761 H       1  UNL1        0.0625
     40 H           7.9270    0.8599   -0.5185 H       1  UNL1        0.0618
     41 H           6.5264    2.1122    0.9864 H       1  UNL1        0.0618
     42 H           4.1962    1.6307    1.1305 H       1  UNL1        0.0624
     43 H          -1.9658   -0.1945   -0.4603 H       1  UNL1        0.0639
@<TRIPOS>BOND
     1     1     2    1
     2     2     3    1
     3     2     4    1
     4     4     5   ar
     5     4    24   ar
     6     5     6   ar
     7     6     7   ar
     8     7     8   ar
     9     8     9    1
    10     8    24   ar
    11     9    10   am
    12    10    11    2
    13    10    12    1
    14    12    13    1
    15    13    14   ar
    16    13    23   ar
    17    14    15   ar
    18    15    16   ar
    19    16    17    2
    20    16    18   ar
    21    18    19   ar
    22    18    23   ar
    23    19    20   ar
    24    20    21   ar
    25    21    22   ar
    26    22    23   ar
    27     1    25    1
    28     1    26    1
    29     1    27    1
    30     2    28    1
    31     3    29    1
    32     3    30    1
    33     3    31    1
    34     5    32    1
    35     6    33    1
    36     7    34    1
    37     9    35    1
    38    12    36    1
    39    12    37    1
    40    15    38    1
    41    19    39    1
    42    20    40    1
    43    21    41    1
    44    22    42    1
    45    24    43    1
@<TRIPOS>MOLECULE
../data/bude_mols_rdkit_confs2/molecule_18.pdb
 43 45 0 0 0
SMALL
GASTEIGER

@<TRIPOS>ATOM
      1  C1        -6.2700    0.3830   -0.2420 C.3     1  UNL1       -0.0586
      2  C2        -5.1110   -0.5790   -0.4450 C.3     1  UNL1       -0.0215
      3  C3        -5.2160   -1.6320    0.5920 C.3     1  UNL1       -0.0586
      4  C4        -3.8250    0.1190   -0.5270 C.ar    1  UNL1       -0.0430
      5  C5        -3.7140    1.2240   -1.3390 C.ar    1  UNL1       -0.0582
      6  C6        -2.5120    1.8820   -1.4280 C.ar    1  UNL1       -0.0597
      7  C7        -1.4300    1.4020   -0.6830 C.ar    1  UNL1       -0.0405
      8  C8        -1.4970    0.3060    0.1380 C.ar    1  UNL1        0.0337
      9  N1        -0.4130   -0.1810    0.8820 N.am    1  UNL1       -0.2852
     10  C9         0.8240    0.4130    1.0550 C.2     1  UNL1        0.2231
     11  O1         1.0610    1.5270    0.4990 O.2     1  UNL1       -0.2751
     12  C10        1.9370   -0.1840    1.8690 C.3     1  UNL1        0.0688
     13  C11        3.0090   -0.7420    1.0350 C.ar    1  UNL1        0.0780
     14  N2         2.9460   -2.0720    0.7030 N.ar    1  UNL1       -0.1748
     15  N3         3.8240   -2.6290   -0.1060 N.ar    1  UNL1       -0.2425
     16  C12        4.8300   -1.9540   -0.6580 C.ar    1  UNL1        0.2725
     17  O2         5.6570   -2.4980   -1.4240 O.2     1  UNL1       -0.2658
     18  C13        4.9590   -0.6070   -0.3660 C.ar    1  UNL1        0.0496
     19  C14        5.9970    0.1110   -0.9040 C.ar    1  UNL1       -0.0487
     20  C15        6.1530    1.4490   -0.6070 C.ar    1  UNL1       -0.0610
     21  C16        5.2240    2.0010    0.2420 C.ar    1  UNL1       -0.0611
     22  C17        4.1680    1.3120    0.8010 C.ar    1  UNL1       -0.0521
     23  C18        4.0330   -0.0290    0.4850 C.ar    1  UNL1        0.0108
     24  C19       -2.7520   -0.3380    0.1990 C.ar    1  UNL1       -0.0370
     25 H          -7.1856   -0.1680   -0.1880 H       1  UNL1        0.0235
     26 H          -6.3135    1.0674   -1.0633 H       1  UNL1        0.0235
     27 H          -6.1268    0.9269    0.6683 H       1  UNL1        0.0235
     28 H          -5.1649   -1.0665   -1.3960 H       1  UNL1        0.0343
     29 H          -5.1661   -1.1834    1.5621 H       1  UNL1        0.0235
     30 H          -4.4099   -2.3263    0.4782 H       1  UNL1        0.0235
     31 H          -6.1479   -2.1467    0.4846 H       1  UNL1        0.0235
     32 H          -4.5290    1.5563   -1.8779 H       1  UNL1        0.0620
     33 H          -2.4093    2.7128   -2.0316 H       1  UNL1        0.0618
     34 H          -0.5298    1.9013   -0.7554 H       1  UNL1        0.0636
     35 H          -0.5479   -1.0455    1.3333 H       1  UNL1        0.1548
     36 H           1.5346   -0.9659    2.4785 H       1  UNL1        0.0423
     37 H           2.3615    0.5992    2.4618 H       1  UNL1        0.0423
     38 H           3.7321   -3.5874   -0.3116 H       1  UNL1        0.1921
     39 H           6.6669   -0.3540   -1.5364 H       1  UNL1        0.0625
     40 H           6.9268    2.0063   -1.0017 H       1  UNL1        0.0618
     41 H           5.3234    3.0008    0.4777 H       1  UNL1        0.0618
     42 H           3.5008    1.7805    1.4337 H       1  UNL1        0.0624
     43 H          -2.8655   -1.1685    0.8009 H       1  UNL1        0.0639
@<TRIPOS>BOND
     1     1     2    1
     2     2     3    1
     3     2     4    1
     4     4     5   ar
     5     4    24   ar
     6     5     6   ar
     7     6     7   ar
     8     7     8   ar
     9     8     9    1
    10     8    24   ar
    11     9    10   am
    12    10    11    2
    13    10    12    1
    14    12    13    1
    15    13    14   ar
    16    13    23   ar
    17    14    15   ar
    18    15    16   ar
    19    16    17    2
    20    16    18   ar
    21    18    19   ar
    22    18    23   ar
    23    19    20   ar
    24    20    21   ar
    25    21    22   ar
    26    22    23   ar
    27     1    25    1
    28     1    26    1
    29     1    27    1
    30     2    28    1
    31     3    29    1
    32     3    30    1
    33     3    31    1
    34     5    32    1
    35     6    33    1
    36     7    34    1
    37     9    35    1
    38    12    36    1
    39    12    37    1
    40    15    38    1
    41    19    39    1
    42    20    40    1
    43    21    41    1
    44    22    42    1
    45    24    43    1
@<TRIPOS>MOLECULE
../data/bude_mols_rdkit_confs2/molecule_18.pdb
 43 45 0 0 0
SMALL
GASTEIGER

@<TRIPOS>ATOM
      1  C1        -5.6790    0.6770   -0.5720 C.3     1  UNL1       -0.0586
      2  C2        -5.2970   -0.7980   -0.5090 C.3     1  UNL1       -0.0215
      3  C3        -5.4950   -1.2590    0.9040 C.3     1  UNL1       -0.0586
      4  C4        -3.8450   -0.8970   -0.8680 C.ar    1  UNL1       -0.0430
      5  C5        -3.4680   -1.6800   -1.9360 C.ar    1  UNL1       -0.0582
      6  C6        -2.1230   -1.7560   -2.2470 C.ar    1  UNL1       -0.0597
      7  C7        -1.1660   -1.0750   -1.5240 C.ar    1  UNL1       -0.0405
      8  C8        -1.5160   -0.2990   -0.4710 C.ar    1  UNL1        0.0337
      9  N1        -0.6310    0.4580    0.3400 N.am    1  UNL1       -0.2852
     10  C9         0.7380    0.7010    0.0890 C.2     1  UNL1        0.2231
     11  O1         1.2520    0.2220   -0.9330 O.2     1  UNL1       -0.2751
     12  C10        1.5270    1.5280    1.0660 C.3     1  UNL1        0.0688
     13  C11        2.9240    1.6750    0.6460 C.ar    1  UNL1        0.0780
     14  N2         3.4000    2.8170    0.1010 N.ar    1  UNL1       -0.1748
     15  N3         4.6560    2.9680   -0.2850 N.ar    1  UNL1       -0.2425
     16  C12        5.5870    1.9950   -0.1710 C.ar    1  UNL1        0.2725
     17  O2         6.7790    2.1670   -0.5470 O.2     1  UNL1       -0.2658
     18  C13        5.1490    0.8050    0.3820 C.ar    1  UNL1        0.0496
     19  C14        6.0650   -0.2180    0.5180 C.ar    1  UNL1       -0.0487
     20  C15        5.6140   -1.4000    1.0710 C.ar    1  UNL1       -0.0610
     21  C16        4.3070   -1.5670    1.4760 C.ar    1  UNL1       -0.0611
     22  C17        3.3890   -0.5480    1.3420 C.ar    1  UNL1       -0.0521
     23  C18        3.8280    0.6430    0.7890 C.ar    1  UNL1        0.0108
     24  C19       -2.8830   -0.2260   -0.1590 C.ar    1  UNL1       -0.0370
     25 H          -6.7131    0.7887   -0.3208 H       1  UNL1        0.0235
     26 H          -5.5104    1.0471   -1.5617 H       1  UNL1        0.0235
     27 H          -5.0816    1.2301    0.1223 H       1  UNL1        0.0235
     28 H          -5.8860   -1.3947   -1.1738 H       1  UNL1        0.0343
     29 H          -4.9029   -0.6575    1.5617 H       1  UNL1        0.0235
     30 H          -5.1957   -2.2826    0.9905 H       1  UNL1        0.0235
     31 H          -6.5277   -1.1658    1.1682 H       1  UNL1        0.0235
     32 H          -4.1701   -2.1959   -2.4891 H       1  UNL1        0.0620
     33 H          -1.8261   -2.3400   -3.0444 H       1  UNL1        0.0618
     34 H          -0.1719   -1.1578   -1.7886 H       1  UNL1        0.0636
     35 H          -1.0085    0.8531    1.1589 H       1  UNL1        0.1548
     36 H           1.5009    1.0521    2.0240 H       1  UNL1        0.0423
     37 H           1.0872    2.5024    1.1106 H       1  UNL1        0.0423
     38 H           4.9258    3.8311   -0.6743 H       1  UNL1        0.1921
     39 H           7.0461   -0.1044    0.2189 H       1  UNL1        0.0625
     40 H           6.2763   -2.1832    1.1847 H       1  UNL1        0.0618
     41 H           4.0120   -2.4673    1.8851 H       1  UNL1        0.0618
     42 H           2.4093   -0.6683    1.6431 H       1  UNL1        0.0624
     43 H          -3.1763    0.3586    0.6393 H       1  UNL1        0.0639
@<TRIPOS>BOND
     1     1     2    1
     2     2     3    1
     3     2     4    1
     4     4     5   ar
     5     4    24   ar
     6     5     6   ar
     7     6     7   ar
     8     7     8   ar
     9     8     9    1
    10     8    24   ar
    11     9    10   am
    12    10    11    2
    13    10    12    1
    14    12    13    1
    15    13    14   ar
    16    13    23   ar
    17    14    15   ar
    18    15    16   ar
    19    16    17    2
    20    16    18   ar
    21    18    19   ar
    22    18    23   ar
    23    19    20   ar
    24    20    21   ar
    25    21    22   ar
    26    22    23   ar
    27     1    25    1
    28     1    26    1
    29     1    27    1
    30     2    28    1
    31     3    29    1
    32     3    30    1
    33     3    31    1
    34     5    32    1
    35     6    33    1
    36     7    34    1
    37     9    35    1
    38    12    36    1
    39    12    37    1
    40    15    38    1
    41    19    39    1
    42    20    40    1
    43    21    41    1
    44    22    42    1
    45    24    43    1
@<TRIPOS>MOLECULE
../data/bude_mols_rdkit_confs2/molecule_18.pdb
 43 45 0 0 0
SMALL
GASTEIGER

@<TRIPOS>ATOM
      1  C1         6.3390    0.7350    0.9190 C.3     1  UNL1       -0.0586
      2  C2         5.1990   -0.2290    0.9430 C.3     1  UNL1       -0.0215
      3  C3         5.7320   -1.6160    0.6390 C.3     1  UNL1       -0.0586
      4  C4         4.0760    0.1270    0.0370 C.ar    1  UNL1       -0.0430
      5  C5         4.2570    0.2030   -1.3270 C.ar    1  UNL1       -0.0582
      6  C6         3.2350    0.5180   -2.1920 C.ar    1  UNL1       -0.0597
      7  C7         1.9750    0.7720   -1.7000 C.ar    1  UNL1       -0.0405
      8  C8         1.7380    0.7120   -0.3560 C.ar    1  UNL1        0.0337
      9  N1         0.4660    0.9120    0.2360 N.am    1  UNL1       -0.2852
     10  C9        -0.7830    0.7370   -0.4090 C.2     1  UNL1        0.2231
     11  O1        -0.8520    0.3700   -1.5980 O.2     1  UNL1       -0.2751
     12  C10       -2.0730    0.9830    0.3230 C.3     1  UNL1        0.0688
     13  C11       -2.9890   -0.1560    0.2540 C.ar    1  UNL1        0.0780
     14  N2        -2.5470   -1.4350    0.1640 N.ar    1  UNL1       -0.1748
     15  N3        -3.3830   -2.4580    0.0810 N.ar    1  UNL1       -0.2425
     16  C12       -4.7120   -2.2820    0.0810 C.ar    1  UNL1        0.2725
     17  O2        -5.5360   -3.2430    0.0030 O.2     1  UNL1       -0.2658
     18  C13       -5.2400   -1.0060    0.1710 C.ar    1  UNL1        0.0496
     19  C14       -6.6020   -0.7950    0.1840 C.ar    1  UNL1       -0.0487
     20  C15       -7.1270    0.4730    0.2840 C.ar    1  UNL1       -0.0610
     21  C16       -6.2680    1.5220    0.3700 C.ar    1  UNL1       -0.0611
     22  C17       -4.9120    1.3120    0.3560 C.ar    1  UNL1       -0.0521
     23  C18       -4.3460    0.0570    0.2570 C.ar    1  UNL1        0.0108
     24  C19        2.7950    0.3910    0.4880 C.ar    1  UNL1       -0.0370
     25 H           7.0994    0.4051    1.5957 H       1  UNL1        0.0235
     26 H           5.9935    1.7034    1.2153 H       1  UNL1        0.0235
     27 H           6.7411    0.7873   -0.0712 H       1  UNL1        0.0235
     28 H           4.7725   -0.1942    1.9237 H       1  UNL1        0.0343
     29 H           6.1532   -1.6286   -0.3445 H       1  UNL1        0.0235
     30 H           4.9327   -2.3252    0.6938 H       1  UNL1        0.0235
     31 H           6.4862   -1.8728    1.3533 H       1  UNL1        0.0235
     32 H           5.1952    0.0164   -1.7143 H       1  UNL1        0.0620
     33 H           3.4126    0.5638   -3.2076 H       1  UNL1        0.0618
     34 H           1.2074    1.0084   -2.3480 H       1  UNL1        0.0636
     35 H           0.4489    1.1976    1.1780 H       1  UNL1        0.1548
     36 H          -2.5542    1.8356   -0.1089 H       1  UNL1        0.0423
     37 H          -1.8338    1.1426    1.3536 H       1  UNL1        0.0423
     38 H          -3.0197   -3.3708    0.0177 H       1  UNL1        0.1921
     39 H          -7.2401   -1.6033    0.1175 H       1  UNL1        0.0625
     40 H          -8.1479    0.6234    0.2934 H       1  UNL1        0.0618
     41 H          -6.6375    2.4826    0.4463 H       1  UNL1        0.0618
     42 H          -4.2865    2.1302    0.4226 H       1  UNL1        0.0624
     43 H           2.6148    0.3474    1.5032 H       1  UNL1        0.0639
@<TRIPOS>BOND
     1     1     2    1
     2     2     3    1
     3     2     4    1
     4     4     5   ar
     5     4    24   ar
     6     5     6   ar
     7     6     7   ar
     8     7     8   ar
     9     8     9    1
    10     8    24   ar
    11     9    10   am
    12    10    11    2
    13    10    12    1
    14    12    13    1
    15    13    14   ar
    16    13    23   ar
    17    14    15   ar
    18    15    16   ar
    19    16    17    2
    20    16    18   ar
    21    18    19   ar
    22    18    23   ar
    23    19    20   ar
    24    20    21   ar
    25    21    22   ar
    26    22    23   ar
    27     1    25    1
    28     1    26    1
    29     1    27    1
    30     2    28    1
    31     3    29    1
    32     3    30    1
    33     3    31    1
    34     5    32    1
    35     6    33    1
    36     7    34    1
    37     9    35    1
    38    12    36    1
    39    12    37    1
    40    15    38    1
    41    19    39    1
    42    20    40    1
    43    21    41    1
    44    22    42    1
    45    24    43    1
@<TRIPOS>MOLECULE
../data/bude_mols_rdkit_confs2/molecule_18.pdb
 43 45 0 0 0
SMALL
GASTEIGER

@<TRIPOS>ATOM
      1  C1         5.6570   -1.9120   -0.0990 C.3     1  UNL1       -0.0586
      2  C2         4.8720   -1.0770   -1.0670 C.3     1  UNL1       -0.0215
      3  C3         5.8480   -0.0640   -1.6850 C.3     1  UNL1       -0.0586
      4  C4         3.7740   -0.3270   -0.4170 C.ar    1  UNL1       -0.0430
      5  C5         3.9710    0.4640    0.7060 C.ar    1  UNL1       -0.0582
      6  C6         2.9230    1.1460    1.2740 C.ar    1  UNL1       -0.0597
      7  C7         1.6270    1.0830    0.7670 C.ar    1  UNL1       -0.0405
      8  C8         1.4120    0.3060   -0.3400 C.ar    1  UNL1        0.0337
      9  N1         0.1300    0.1560   -0.9350 N.am    1  UNL1       -0.2852
     10  C9        -1.1100    0.5340   -0.4010 C.2     1  UNL1        0.2231
     11  O1        -1.1680    1.0630    0.7240 O.2     1  UNL1       -0.2751
     12  C10       -2.3980    0.3160   -1.1590 C.3     1  UNL1        0.0688
     13  C11       -3.4930    0.8030   -0.3500 C.ar    1  UNL1        0.0780
     14  N2        -4.0650    1.9840   -0.6550 N.ar    1  UNL1       -0.1748
     15  N3        -5.0690    2.4800    0.0510 N.ar    1  UNL1       -0.2425
     16  C12       -5.5780    1.8290    1.1180 C.ar    1  UNL1        0.2725
     17  O2        -6.5430    2.2980    1.8020 O.2     1  UNL1       -0.2658
     18  C13       -5.0450    0.6220    1.4870 C.ar    1  UNL1        0.0496
     19  C14       -5.5400   -0.0880    2.5850 C.ar    1  UNL1       -0.0487
     20  C15       -4.9600   -1.2990    2.9050 C.ar    1  UNL1       -0.0610
     21  C16       -3.9140   -1.7970    2.1550 C.ar    1  UNL1       -0.0611
     22  C17       -3.4380   -1.0820    1.0730 C.ar    1  UNL1       -0.0521
     23  C18       -4.0080    0.1180    0.7510 C.ar    1  UNL1        0.0108
     24  C19        2.4990   -0.3790   -0.9020 C.ar    1  UNL1       -0.0370
     25 H           6.4338   -2.4293   -0.6224 H       1  UNL1        0.0235
     26 H           5.0072   -2.6224    0.3679 H       1  UNL1        0.0235
     27 H           6.0900   -1.2799    0.6479 H       1  UNL1        0.0235
     28 H           4.4285   -1.7257   -1.7932 H       1  UNL1        0.0343
     29 H           6.2572    0.5536   -0.9130 H       1  UNL1        0.0235
     30 H           5.3273    0.5471   -2.3923 H       1  UNL1        0.0235
     31 H           6.6392   -0.5873   -2.1801 H       1  UNL1        0.0235
     32 H           4.9140    0.5405    1.1183 H       1  UNL1        0.0620
     33 H           3.1023    1.7270    2.1078 H       1  UNL1        0.0618
     34 H           0.8548    1.6044    1.2108 H       1  UNL1        0.0636
     35 H           0.1104   -0.2621   -1.8261 H       1  UNL1        0.1548
     36 H          -2.5298   -0.7277   -1.3546 H       1  UNL1        0.0423
     37 H          -2.3687    0.8404   -2.0912 H       1  UNL1        0.0423
     38 H          -5.4549    3.3475   -0.2094 H       1  UNL1        0.1921
     39 H          -6.3226    0.2855    3.1445 H       1  UNL1        0.0625
     40 H          -5.3118   -1.8369    3.7124 H       1  UNL1        0.0618
     41 H          -3.4874   -2.7035    2.4024 H       1  UNL1        0.0618
     42 H          -2.6559   -1.4520    0.5105 H       1  UNL1        0.0624
     43 H           2.3236   -0.9602   -1.7365 H       1  UNL1        0.0639
@<TRIPOS>BOND
     1     1     2    1
     2     2     3    1
     3     2     4    1
     4     4     5   ar
     5     4    24   ar
     6     5     6   ar
     7     6     7   ar
     8     7     8   ar
     9     8     9    1
    10     8    24   ar
    11     9    10   am
    12    10    11    2
    13    10    12    1
    14    12    13    1
    15    13    14   ar
    16    13    23   ar
    17    14    15   ar
    18    15    16   ar
    19    16    17    2
    20    16    18   ar
    21    18    19   ar
    22    18    23   ar
    23    19    20   ar
    24    20    21   ar
    25    21    22   ar
    26    22    23   ar
    27     1    25    1
    28     1    26    1
    29     1    27    1
    30     2    28    1
    31     3    29    1
    32     3    30    1
    33     3    31    1
    34     5    32    1
    35     6    33    1
    36     7    34    1
    37     9    35    1
    38    12    36    1
    39    12    37    1
    40    15    38    1
    41    19    39    1
    42    20    40    1
    43    21    41    1
    44    22    42    1
    45    24    43    1
@<TRIPOS>MOLECULE
../data/bude_mols_rdkit_confs2/molecule_18.pdb
 43 45 0 0 0
SMALL
GASTEIGER

@<TRIPOS>ATOM
      1  C1        -4.4950   -1.8340    0.9850 C.3     1  UNL1       -0.0586
      2  C2        -4.7740   -0.3490    0.8610 C.3     1  UNL1       -0.0215
      3  C3        -4.3770    0.3670    2.1200 C.3     1  UNL1       -0.0586
      4  C4        -4.0950    0.2220   -0.3240 C.ar    1  UNL1       -0.0430
      5  C5        -4.8120    0.7800   -1.3570 C.ar    1  UNL1       -0.0582
      6  C6        -4.1880    1.3120   -2.4620 C.ar    1  UNL1       -0.0597
      7  C7        -2.8280    1.2680   -2.4990 C.ar    1  UNL1       -0.0405
      8  C8        -2.0520    0.7120   -1.4740 C.ar    1  UNL1        0.0337
      9  N1        -0.6510    0.7380   -1.6620 N.am    1  UNL1       -0.2852
     10  C9         0.3450    0.3440   -0.7620 C.2     1  UNL1        0.2231
     11  O1         0.0280   -0.0900    0.3610 O.2     1  UNL1       -0.2751
     12  C10        1.8110    0.4190   -1.0860 C.3     1  UNL1        0.0688
     13  C11        2.6250   -0.0570    0.0400 C.ar    1  UNL1        0.0780
     14  N2         2.0330   -0.4780    1.1590 N.ar    1  UNL1       -0.1748
     15  N3         2.7700   -0.9080    2.1740 N.ar    1  UNL1       -0.2425
     16  C12        4.1010   -0.9570    2.1730 C.ar    1  UNL1        0.2725
     17  O2         4.7730   -1.3770    3.1680 O.2     1  UNL1       -0.2658
     18  C13        4.7620   -0.5300    1.0330 C.ar    1  UNL1        0.0496
     19  C14        6.1300   -0.5490    0.9510 C.ar    1  UNL1       -0.0487
     20  C15        6.8080   -0.1270   -0.1770 C.ar    1  UNL1       -0.0610
     21  C16        6.0340    0.3170   -1.2270 C.ar    1  UNL1       -0.0611
     22  C17        4.6590    0.3440   -1.1640 C.ar    1  UNL1       -0.0521
     23  C18        3.9900   -0.0760   -0.0410 C.ar    1  UNL1        0.0108
     24  C19       -2.6970    0.1890   -0.3860 C.ar    1  UNL1       -0.0370
     25 H          -4.9965   -2.2203    1.8476 H       1  UNL1        0.0235
     26 H          -3.4414   -1.9919    1.0844 H       1  UNL1        0.0235
     27 H          -4.8502   -2.3379    0.1105 H       1  UNL1        0.0235
     28 H          -5.8262   -0.2133    0.7222 H       1  UNL1        0.0343
     29 H          -3.3263    0.2467    2.2825 H       1  UNL1        0.0235
     30 H          -4.9154   -0.0434    2.9486 H       1  UNL1        0.0235
     31 H          -4.6065    1.4079    2.0259 H       1  UNL1        0.0235
     32 H          -5.8423    0.8001   -1.3019 H       1  UNL1        0.0620
     33 H          -4.7310    1.7290   -3.2342 H       1  UNL1        0.0618
     34 H          -2.3457    1.6631   -3.3214 H       1  UNL1        0.0636
     35 H          -0.3381    1.0745   -2.5327 H       1  UNL1        0.1548
     36 H           2.0703    1.4348   -1.3002 H       1  UNL1        0.0423
     37 H           2.0046   -0.2046   -1.9337 H       1  UNL1        0.0423
     38 H           2.3009   -1.2121    2.9844 H       1  UNL1        0.1921
     39 H           6.6727   -0.8903    1.7597 H       1  UNL1        0.0625
     40 H           7.8385   -0.1435   -0.2300 H       1  UNL1        0.0618
     41 H           6.5004    0.6400   -2.0891 H       1  UNL1        0.0618
     42 H           4.1213    0.6862   -1.9757 H       1  UNL1        0.0624
     43 H          -2.1543   -0.2284    0.3862 H       1  UNL1        0.0639
@<TRIPOS>BOND
     1     1     2    1
     2     2     3    1
     3     2     4    1
     4     4     5   ar
     5     4    24   ar
     6     5     6   ar
     7     6     7   ar
     8     7     8   ar
     9     8     9    1
    10     8    24   ar
    11     9    10   am
    12    10    11    2
    13    10    12    1
    14    12    13    1
    15    13    14   ar
    16    13    23   ar
    17    14    15   ar
    18    15    16   ar
    19    16    17    2
    20    16    18   ar
    21    18    19   ar
    22    18    23   ar
    23    19    20   ar
    24    20    21   ar
    25    21    22   ar
    26    22    23   ar
    27     1    25    1
    28     1    26    1
    29     1    27    1
    30     2    28    1
    31     3    29    1
    32     3    30    1
    33     3    31    1
    34     5    32    1
    35     6    33    1
    36     7    34    1
    37     9    35    1
    38    12    36    1
    39    12    37    1
    40    15    38    1
    41    19    39    1
    42    20    40    1
    43    21    41    1
    44    22    42    1
    45    24    43    1
@<TRIPOS>MOLECULE
../data/bude_mols_rdkit_confs2/molecule_18.pdb
 43 45 0 0 0
SMALL
GASTEIGER

@<TRIPOS>ATOM
      1  C1         5.6780    0.1570    1.3020 C.3     1  UNL1       -0.0586
      2  C2         5.2250    0.2820   -0.1190 C.3     1  UNL1       -0.0215
      3  C3         5.0010    1.7630   -0.4400 C.3     1  UNL1       -0.0586
      4  C4         3.9130   -0.4040   -0.3410 C.ar    1  UNL1       -0.0430
      5  C5         3.7460   -1.3600   -1.3370 C.ar    1  UNL1       -0.0582
      6  C6         2.5520   -1.9900   -1.5510 C.ar    1  UNL1       -0.0597
      7  C7         1.4550   -1.6670   -0.7440 C.ar    1  UNL1       -0.0405
      8  C8         1.5850   -0.7320    0.2420 C.ar    1  UNL1        0.0337
      9  N1         0.5390   -0.3180    1.1010 N.am    1  UNL1       -0.2852
     10  C9        -0.8310   -0.5730    0.9220 C.2     1  UNL1        0.2231
     11  O1        -1.2380   -1.2160   -0.0630 O.2     1  UNL1       -0.2751
     12  C10       -1.8170   -0.0570    1.9460 C.3     1  UNL1        0.0688
     13  C11       -3.1890   -0.3960    1.5880 C.ar    1  UNL1        0.0780
     14  N2        -3.8410   -1.3860    2.2230 N.ar    1  UNL1       -0.1748
     15  N3        -5.1010   -1.6810    1.8840 N.ar    1  UNL1       -0.2425
     16  C12       -5.7660   -1.0420    0.9360 C.ar    1  UNL1        0.2725
     17  O2        -6.9470   -1.3380    0.6380 O.2     1  UNL1       -0.2658
     18  C13       -5.1350   -0.0220    0.2640 C.ar    1  UNL1        0.0496
     19  C14       -5.7690    0.6970   -0.7450 C.ar    1  UNL1       -0.0487
     20  C15       -5.0780    1.7130   -1.3850 C.ar    1  UNL1       -0.0610
     21  C16       -3.7790    2.0140   -1.0330 C.ar    1  UNL1       -0.0611
     22  C17       -3.1410    1.3120   -0.0380 C.ar    1  UNL1       -0.0521
     23  C18       -3.8360    0.3040    0.5910 C.ar    1  UNL1        0.0108
     24  C19        2.8320   -0.1110    0.4260 C.ar    1  UNL1       -0.0370
     25 H           6.6159    0.6576    1.4227 H       1  UNL1        0.0235
     26 H           5.7913   -0.8775    1.5505 H       1  UNL1        0.0235
     27 H           4.9506    0.6015    1.9487 H       1  UNL1        0.0235
     28 H           5.9771   -0.1621   -0.7371 H       1  UNL1        0.0343
     29 H           4.2423    2.1567    0.2037 H       1  UNL1        0.0235
     30 H           4.6917    1.8642   -1.4593 H       1  UNL1        0.0235
     31 H           5.9125    2.3026   -0.2886 H       1  UNL1        0.0235
     32 H           4.5513   -1.6022   -1.9352 H       1  UNL1        0.0620
     33 H           2.4605   -2.6954   -2.2987 H       1  UNL1        0.0618
     34 H           0.5479   -2.1357   -0.8944 H       1  UNL1        0.0636
     35 H           0.7957    0.1974    1.8995 H       1  UNL1        0.1548
     36 H          -1.7274    1.0074    2.0088 H       1  UNL1        0.0423
     37 H          -1.5935   -0.5154    2.8866 H       1  UNL1        0.0423
     38 H          -5.5560   -2.4102    2.3642 H       1  UNL1        0.1921
     39 H          -6.7409    0.4763   -1.0129 H       1  UNL1        0.0625
     40 H          -5.5409    2.2511   -2.1342 H       1  UNL1        0.0618
     41 H          -3.2807    2.7742   -1.5217 H       1  UNL1        0.0618
     42 H          -2.1694    1.5342    0.2295 H       1  UNL1        0.0624
     43 H           2.9297    0.5947    1.1726 H       1  UNL1        0.0639
@<TRIPOS>BOND
     1     1     2    1
     2     2     3    1
     3     2     4    1
     4     4     5   ar
     5     4    24   ar
     6     5     6   ar
     7     6     7   ar
     8     7     8   ar
     9     8     9    1
    10     8    24   ar
    11     9    10   am
    12    10    11    2
    13    10    12    1
    14    12    13    1
    15    13    14   ar
    16    13    23   ar
    17    14    15   ar
    18    15    16   ar
    19    16    17    2
    20    16    18   ar
    21    18    19   ar
    22    18    23   ar
    23    19    20   ar
    24    20    21   ar
    25    21    22   ar
    26    22    23   ar
    27     1    25    1
    28     1    26    1
    29     1    27    1
    30     2    28    1
    31     3    29    1
    32     3    30    1
    33     3    31    1
    34     5    32    1
    35     6    33    1
    36     7    34    1
    37     9    35    1
    38    12    36    1
    39    12    37    1
    40    15    38    1
    41    19    39    1
    42    20    40    1
    43    21    41    1
    44    22    42    1
    45    24    43    1
@<TRIPOS>MOLECULE
../data/bude_mols_rdkit_confs2/molecule_18.pdb
 43 45 0 0 0
SMALL
GASTEIGER

@<TRIPOS>ATOM
      1  C1        -4.6400    1.6680   -0.7550 C.3     1  UNL1       -0.0586
      2  C2        -4.8530    0.2240   -0.4370 C.3     1  UNL1       -0.0215
      3  C3        -5.0270    0.0450    1.0530 C.3     1  UNL1       -0.0586
      4  C4        -3.5970   -0.5260   -0.8200 C.ar    1  UNL1       -0.0430
      5  C5        -3.5820   -1.4260   -1.8820 C.ar    1  UNL1       -0.0582
      6  C6        -2.3770   -2.0700   -2.1540 C.ar    1  UNL1       -0.0597
      7  C7        -1.2710   -1.7950   -1.3760 C.ar    1  UNL1       -0.0405
      8  C8        -1.2850   -0.8920   -0.3170 C.ar    1  UNL1        0.0337
      9  N1        -0.1020   -0.7330    0.4330 N.am    1  UNL1       -0.2852
     10  C9         0.2330    0.3090    1.3170 C.2     1  UNL1        0.2231
     11  O1        -0.5870    1.2670    1.4640 O.2     1  UNL1       -0.2751
     12  C10        1.4940    0.3650    2.0960 C.3     1  UNL1        0.0688
     13  C11        2.6690   -0.1900    1.4350 C.ar    1  UNL1        0.0780
     14  N2         2.9790   -1.5050    1.6870 N.ar    1  UNL1       -0.1748
     15  N3         3.9720   -2.1430    1.1430 N.ar    1  UNL1       -0.2425
     16  C12        4.7740   -1.5120    0.2710 C.ar    1  UNL1        0.2725
     17  O2         5.7500   -2.1100   -0.2690 O.2     1  UNL1       -0.2658
     18  C13        4.5620   -0.1930   -0.0630 C.ar    1  UNL1        0.0496
     19  C14        5.3870    0.4750   -0.9310 C.ar    1  UNL1       -0.0487
     20  C15        5.1570    1.8020   -1.2120 C.ar    1  UNL1       -0.0610
     21  C16        4.1030    2.4250   -0.6160 C.ar    1  UNL1       -0.0611
     22  C17        3.2330    1.8100    0.2670 C.ar    1  UNL1       -0.0521
     23  C18        3.4760    0.4560    0.5490 C.ar    1  UNL1        0.0108
     24  C19       -2.4880   -0.2750   -0.0760 C.ar    1  UNL1       -0.0370
     25 H          -5.5160    2.2239   -0.4932 H       1  UNL1        0.0235
     26 H          -4.4474    1.7781   -1.8018 H       1  UNL1        0.0235
     27 H          -3.8041    2.0364   -0.1979 H       1  UNL1        0.0235
     28 H          -5.7164   -0.1304   -0.9604 H       1  UNL1        0.0343
     29 H          -4.1556    0.4041    1.5595 H       1  UNL1        0.0235
     30 H          -5.1656   -0.9928    1.2738 H       1  UNL1        0.0235
     31 H          -5.8830    0.5968    1.3810 H       1  UNL1        0.0235
     32 H          -4.4280   -1.6084   -2.4442 H       1  UNL1        0.0620
     33 H          -2.3121   -2.7467   -2.9304 H       1  UNL1        0.0618
     34 H          -0.3879   -2.2841   -1.5904 H       1  UNL1        0.0636
     35 H           0.5747   -1.4398    0.3246 H       1  UNL1        0.1548
     36 H           1.3425   -0.1760    3.0066 H       1  UNL1        0.0423
     37 H           1.7030    1.4045    2.2395 H       1  UNL1        0.0423
     38 H           4.1356   -3.0869    1.3699 H       1  UNL1        0.1921
     39 H           6.1793   -0.0170   -1.3729 H       1  UNL1        0.0625
     40 H           5.7719    2.3157   -1.8624 H       1  UNL1        0.0618
     41 H           3.9427    3.4202   -0.8371 H       1  UNL1        0.0618
     42 H           2.4456    2.3205    0.6965 H       1  UNL1        0.0624
     43 H          -2.5521    0.4041    0.6984 H       1  UNL1        0.0639
@<TRIPOS>BOND
     1     1     2    1
     2     2     3    1
     3     2     4    1
     4     4     5   ar
     5     4    24   ar
     6     5     6   ar
     7     6     7   ar
     8     7     8   ar
     9     8     9    1
    10     8    24   ar
    11     9    10   am
    12    10    11    2
    13    10    12    1
    14    12    13    1
    15    13    14   ar
    16    13    23   ar
    17    14    15   ar
    18    15    16   ar
    19    16    17    2
    20    16    18   ar
    21    18    19   ar
    22    18    23   ar
    23    19    20   ar
    24    20    21   ar
    25    21    22   ar
    26    22    23   ar
    27     1    25    1
    28     1    26    1
    29     1    27    1
    30     2    28    1
    31     3    29    1
    32     3    30    1
    33     3    31    1
    34     5    32    1
    35     6    33    1
    36     7    34    1
    37     9    35    1
    38    12    36    1
    39    12    37    1
    40    15    38    1
    41    19    39    1
    42    20    40    1
    43    21    41    1
    44    22    42    1
    45    24    43    1
@<TRIPOS>MOLECULE
../data/bude_mols_rdkit_confs2/molecule_18.pdb
 43 45 0 0 0
SMALL
GASTEIGER

@<TRIPOS>ATOM
      1  C1         5.9160    1.4890    0.7070 C.3     1  UNL1       -0.0586
      2  C2         5.1830    0.1900    0.6850 C.3     1  UNL1       -0.0215
      3  C3         6.0640   -0.8390    0.0050 C.3     1  UNL1       -0.0586
      4  C4         3.8820    0.2320   -0.0050 C.ar    1  UNL1       -0.0430
      5  C5         3.7730    0.6390   -1.3160 C.ar    1  UNL1       -0.0582
      6  C6         2.5500    0.6760   -1.9610 C.ar    1  UNL1       -0.0597
      7  C7         1.4290    0.2840   -1.2300 C.ar    1  UNL1       -0.0405
      8  C8         1.4660   -0.1290    0.0690 C.ar    1  UNL1        0.0337
      9  N1         0.3790   -0.5470    0.8620 N.am    1  UNL1       -0.2852
     10  C9        -0.9570   -0.7110    0.4390 C.2     1  UNL1        0.2231
     11  O1        -1.2590   -0.4790   -0.7450 O.2     1  UNL1       -0.2751
     12  C10       -2.0230   -1.1700    1.4210 C.3     1  UNL1        0.0688
     13  C11       -3.3210   -1.2680    0.7300 C.ar    1  UNL1        0.0780
     14  N2        -3.8060   -2.4700    0.3810 N.ar    1  UNL1       -0.1748
     15  N3        -4.9510   -2.6550   -0.2390 N.ar    1  UNL1       -0.2425
     16  C12       -5.6890   -1.5790   -0.5490 C.ar    1  UNL1        0.2725
     17  O2        -6.7800   -1.7480   -1.1410 O.2     1  UNL1       -0.2658
     18  C13       -5.2840   -0.3130   -0.2380 C.ar    1  UNL1        0.0496
     19  C14       -6.0640    0.7930   -0.5660 C.ar    1  UNL1       -0.0487
     20  C15       -5.6060    2.0310   -0.2280 C.ar    1  UNL1       -0.0610
     21  C16       -4.3880    2.1910    0.4300 C.ar    1  UNL1       -0.0611
     22  C17       -3.6130    1.0950    0.7560 C.ar    1  UNL1       -0.0521
     23  C18       -4.0810   -0.1510    0.4120 C.ar    1  UNL1        0.0108
     24  C19        2.7340   -0.1440    0.6630 C.ar    1  UNL1       -0.0370
     25 H           6.8441    1.3661    1.2250 H       1  UNL1        0.0235
     26 H           5.3226    2.2249    1.2081 H       1  UNL1        0.0235
     27 H           6.1071    1.8078   -0.2964 H       1  UNL1        0.0235
     28 H           4.9690   -0.0588    1.7034 H       1  UNL1        0.0343
     29 H           6.2450   -0.5409   -1.0066 H       1  UNL1        0.0235
     30 H           5.5739   -1.7901    0.0143 H       1  UNL1        0.0235
     31 H           6.9950   -0.9124    0.5273 H       1  UNL1        0.0235
     32 H           4.6226    0.9227   -1.8286 H       1  UNL1        0.0620
     33 H           2.4703    0.9814   -2.9436 H       1  UNL1        0.0618
     34 H           0.5120    0.3080   -1.7028 H       1  UNL1        0.0636
     35 H           0.5712   -0.7447    1.8071 H       1  UNL1        0.1548
     36 H          -2.0979   -0.4638    2.2214 H       1  UNL1        0.0423
     37 H          -1.7558   -2.1288    1.8137 H       1  UNL1        0.0423
     38 H          -5.2588   -3.5612   -0.4699 H       1  UNL1        0.1921
     39 H          -6.9666    0.6779   -1.0530 H       1  UNL1        0.0625
     40 H          -6.1697    2.8629   -0.4629 H       1  UNL1        0.0618
     41 H          -4.0615    3.1385    0.6764 H       1  UNL1        0.0618
     42 H          -2.7102    1.2081    1.2430 H       1  UNL1        0.0624
     43 H           2.8139   -0.4502    1.6453 H       1  UNL1        0.0639
@<TRIPOS>BOND
     1     1     2    1
     2     2     3    1
     3     2     4    1
     4     4     5   ar
     5     4    24   ar
     6     5     6   ar
     7     6     7   ar
     8     7     8   ar
     9     8     9    1
    10     8    24   ar
    11     9    10   am
    12    10    11    2
    13    10    12    1
    14    12    13    1
    15    13    14   ar
    16    13    23   ar
    17    14    15   ar
    18    15    16   ar
    19    16    17    2
    20    16    18   ar
    21    18    19   ar
    22    18    23   ar
    23    19    20   ar
    24    20    21   ar
    25    21    22   ar
    26    22    23   ar
    27     1    25    1
    28     1    26    1
    29     1    27    1
    30     2    28    1
    31     3    29    1
    32     3    30    1
    33     3    31    1
    34     5    32    1
    35     6    33    1
    36     7    34    1
    37     9    35    1
    38    12    36    1
    39    12    37    1
    40    15    38    1
    41    19    39    1
    42    20    40    1
    43    21    41    1
    44    22    42    1
    45    24    43    1
@<TRIPOS>MOLECULE
../data/bude_mols_rdkit_confs2/molecule_18.pdb
 43 45 0 0 0
SMALL
GASTEIGER

@<TRIPOS>ATOM
      1  C1        -3.5660   -1.0930   -1.4510 C.3     1  UNL1       -0.0586
      2  C2        -4.2180   -0.1670   -0.4290 C.3     1  UNL1       -0.0215
      3  C3        -4.1380    1.2750   -0.8660 C.3     1  UNL1       -0.0586
      4  C4        -3.5310   -0.4010    0.8590 C.ar    1  UNL1       -0.0430
      5  C5        -4.2270   -0.9380    1.9120 C.ar    1  UNL1       -0.0582
      6  C6        -3.6270   -1.1760    3.1400 C.ar    1  UNL1       -0.0597
      7  C7        -2.3020   -0.8550    3.2700 C.ar    1  UNL1       -0.0405
      8  C8        -1.5400   -0.3050    2.2310 C.ar    1  UNL1        0.0337
      9  N1        -0.1770    0.0030    2.4560 N.am    1  UNL1       -0.2852
     10  C9         0.7640    0.4510    1.5150 C.2     1  UNL1        0.2231
     11  O1         0.4220    0.6130    0.3290 O.2     1  UNL1       -0.2751
     12  C10        2.1970    0.7450    1.9060 C.3     1  UNL1        0.0688
     13  C11        2.9660    1.1990    0.7260 C.ar    1  UNL1        0.0780
     14  N2         3.3070    2.4710    0.4960 N.ar    1  UNL1       -0.1748
     15  N3         4.0040    2.8540   -0.5830 N.ar    1  UNL1       -0.2425
     16  C12        4.3990    1.9580   -1.5020 C.ar    1  UNL1        0.2725
     17  O2         5.0480    2.3110   -2.5090 O.2     1  UNL1       -0.2658
     18  C13        4.0840    0.6310   -1.3320 C.ar    1  UNL1        0.0496
     19  C14        4.4930   -0.2690   -2.2740 C.ar    1  UNL1       -0.0487
     20  C15        4.1920   -1.6000   -2.1280 C.ar    1  UNL1       -0.0610
     21  C16        3.4660   -2.0290   -1.0130 C.ar    1  UNL1       -0.0611
     22  C17        3.0740   -1.0860   -0.0860 C.ar    1  UNL1       -0.0521
     23  C18        3.3590    0.2560   -0.2020 C.ar    1  UNL1        0.0108
     24  C19       -2.1840   -0.0960    1.0560 C.ar    1  UNL1       -0.0370
     25 H          -4.0334   -0.9579   -2.4040 H       1  UNL1        0.0235
     26 H          -3.6830   -2.1092   -1.1372 H       1  UNL1        0.0235
     27 H          -2.5243   -0.8614   -1.5286 H       1  UNL1        0.0235
     28 H          -5.2626   -0.3774   -0.3313 H       1  UNL1        0.0343
     29 H          -3.1122    1.5555   -0.9842 H       1  UNL1        0.0235
     30 H          -4.5951    1.8979   -0.1258 H       1  UNL1        0.0235
     31 H          -4.6500    1.3942   -1.7980 H       1  UNL1        0.0235
     32 H          -5.2245   -1.1714    1.7873 H       1  UNL1        0.0620
     33 H          -4.1594   -1.5800    3.9264 H       1  UNL1        0.0618
     34 H          -1.8423   -1.0267    4.1779 H       1  UNL1        0.0636
     35 H           0.1487   -0.1098    3.3782 H       1  UNL1        0.1548
     36 H           2.6453   -0.1433    2.2996 H       1  UNL1        0.0423
     37 H           2.2054    1.5174    2.6464 H       1  UNL1        0.0423
     38 H           4.2293    3.8048   -0.7034 H       1  UNL1        0.1921
     39 H           5.0285    0.0517   -3.0958 H       1  UNL1        0.0625
     40 H           4.5005   -2.2817   -2.8387 H       1  UNL1        0.0618
     41 H           3.2295   -3.0256   -0.8868 H       1  UNL1        0.0618
     42 H           2.5391   -1.4029    0.7377 H       1  UNL1        0.0624
     43 H          -1.6519    0.3082    0.2695 H       1  UNL1        0.0639
@<TRIPOS>BOND
     1     1     2    1
     2     2     3    1
     3     2     4    1
     4     4     5   ar
     5     4    24   ar
     6     5     6   ar
     7     6     7   ar
     8     7     8   ar
     9     8     9    1
    10     8    24   ar
    11     9    10   am
    12    10    11    2
    13    10    12    1
    14    12    13    1
    15    13    14   ar
    16    13    23   ar
    17    14    15   ar
    18    15    16   ar
    19    16    17    2
    20    16    18   ar
    21    18    19   ar
    22    18    23   ar
    23    19    20   ar
    24    20    21   ar
    25    21    22   ar
    26    22    23   ar
    27     1    25    1
    28     1    26    1
    29     1    27    1
    30     2    28    1
    31     3    29    1
    32     3    30    1
    33     3    31    1
    34     5    32    1
    35     6    33    1
    36     7    34    1
    37     9    35    1
    38    12    36    1
    39    12    37    1
    40    15    38    1
    41    19    39    1
    42    20    40    1
    43    21    41    1
    44    22    42    1
    45    24    43    1
@<TRIPOS>MOLECULE
../data/bude_mols_rdkit_confs2/molecule_18.pdb
 43 45 0 0 0
SMALL
GASTEIGER

@<TRIPOS>ATOM
      1  C1         6.0420   -0.9380    0.5240 C.3     1  UNL1       -0.0586
      2  C2         5.2370    0.0010   -0.3700 C.3     1  UNL1       -0.0215
      3  C3         5.9360    1.3130   -0.4860 C.3     1  UNL1       -0.0586
      4  C4         3.9020    0.1820    0.2750 C.ar    1  UNL1       -0.0430
      5  C5         3.7800    0.7260    1.5440 C.ar    1  UNL1       -0.0582
      6  C6         2.5360    0.8650    2.0850 C.ar    1  UNL1       -0.0597
      7  C7         1.3620    0.4870    1.4290 C.ar    1  UNL1       -0.0405
      8  C8         1.4680   -0.0470    0.1860 C.ar    1  UNL1        0.0337
      9  N1         0.3940   -0.4870   -0.5890 N.am    1  UNL1       -0.2852
     10  C9        -0.9400   -0.6600   -0.1600 C.2     1  UNL1        0.2231
     11  O1        -1.2530   -0.4170    1.0150 O.2     1  UNL1       -0.2751
     12  C10       -1.9660   -1.1390   -1.1360 C.3     1  UNL1        0.0688
     13  C11       -3.2700   -1.2490   -0.4530 C.ar    1  UNL1        0.0780
     14  N2        -3.7420   -2.4560   -0.0970 N.ar    1  UNL1       -0.1748
     15  N3        -4.8950   -2.6530    0.5180 N.ar    1  UNL1       -0.2425
     16  C12       -5.6630   -1.6050    0.8190 C.ar    1  UNL1        0.2725
     17  O2        -6.7620   -1.7940    1.4060 O.2     1  UNL1       -0.2658
     18  C13       -5.2410   -0.3170    0.4830 C.ar    1  UNL1        0.0496
     19  C14       -6.0310    0.7610    0.7920 C.ar    1  UNL1       -0.0487
     20  C15       -5.6270    2.0480    0.4650 C.ar    1  UNL1       -0.0610
     21  C16       -4.4280    2.2020   -0.1710 C.ar    1  UNL1       -0.0611
     22  C17       -3.6240    1.1070   -0.4860 C.ar    1  UNL1       -0.0521
     23  C18       -4.0370   -0.1560   -0.1560 C.ar    1  UNL1        0.0108
     24  C19        2.7520   -0.1870   -0.3650 C.ar    1  UNL1       -0.0370
     25 H           7.0101   -1.0951    0.0962 H       1  UNL1        0.0235
     26 H           5.5325   -1.8752    0.6072 H       1  UNL1        0.0235
     27 H           6.1478   -0.5021    1.4954 H       1  UNL1        0.0235
     28 H           5.1296   -0.4032   -1.3549 H       1  UNL1        0.0343
     29 H           6.0566    1.7402    0.4876 H       1  UNL1        0.0235
     30 H           5.3558    1.9735   -1.0959 H       1  UNL1        0.0235
     31 H           6.8972    1.1668   -0.9329 H       1  UNL1        0.0235
     32 H           4.6169    1.0210    2.0708 H       1  UNL1        0.0620
     33 H           2.4576    1.2715    3.0303 H       1  UNL1        0.0618
     34 H           0.4405    0.6103    1.8769 H       1  UNL1        0.0636
     35 H           0.5862   -0.6984   -1.5311 H       1  UNL1        0.1548
     36 H          -1.6789   -2.0971   -1.5160 H       1  UNL1        0.0423
     37 H          -2.0421   -0.4458   -1.9475 H       1  UNL1        0.0423
     38 H          -5.1842   -3.5646    0.7517 H       1  UNL1        0.1921
     39 H          -6.9330    0.6139    1.2714 H       1  UNL1        0.0625
     40 H          -6.2149    2.8642    0.6955 H       1  UNL1        0.0618
     41 H          -4.1098    3.1505   -0.4242 H       1  UNL1        0.0618
     42 H          -2.7213    1.2481   -0.9659 H       1  UNL1        0.0624
     43 H           2.8322   -0.5931   -1.3104 H       1  UNL1        0.0639
@<TRIPOS>BOND
     1     1     2    1
     2     2     3    1
     3     2     4    1
     4     4     5   ar
     5     4    24   ar
     6     5     6   ar
     7     6     7   ar
     8     7     8   ar
     9     8     9    1
    10     8    24   ar
    11     9    10   am
    12    10    11    2
    13    10    12    1
    14    12    13    1
    15    13    14   ar
    16    13    23   ar
    17    14    15   ar
    18    15    16   ar
    19    16    17    2
    20    16    18   ar
    21    18    19   ar
    22    18    23   ar
    23    19    20   ar
    24    20    21   ar
    25    21    22   ar
    26    22    23   ar
    27     1    25    1
    28     1    26    1
    29     1    27    1
    30     2    28    1
    31     3    29    1
    32     3    30    1
    33     3    31    1
    34     5    32    1
    35     6    33    1
    36     7    34    1
    37     9    35    1
    38    12    36    1
    39    12    37    1
    40    15    38    1
    41    19    39    1
    42    20    40    1
    43    21    41    1
    44    22    42    1
    45    24    43    1
@<TRIPOS>MOLECULE
../data/bude_mols_rdkit_confs2/molecule_18.pdb
 43 45 0 0 0
SMALL
GASTEIGER

@<TRIPOS>ATOM
      1  C1        -4.8130    1.3940    0.0620 C.3     1  UNL1       -0.0586
      2  C2        -4.8580   -0.1010   -0.0060 C.3     1  UNL1       -0.0215
      3  C3        -5.6950   -0.4730   -1.2480 C.3     1  UNL1       -0.0586
      4  C4        -3.5160   -0.7070   -0.1230 C.ar    1  UNL1       -0.0430
      5  C5        -3.3860   -2.0680   -0.0300 C.ar    1  UNL1       -0.0582
      6  C6        -2.1360   -2.6680   -0.1380 C.ar    1  UNL1       -0.0597
      7  C7        -1.0120   -1.8910   -0.3400 C.ar    1  UNL1       -0.0405
      8  C8        -1.1320   -0.5320   -0.4330 C.ar    1  UNL1        0.0337
      9  N1         0.0200    0.3230   -0.6600 N.am    1  UNL1       -0.2852
     10  C9         0.4420    1.1780    0.3890 C.2     1  UNL1        0.2231
     11  O1        -0.1890    1.1560    1.4980 O.2     1  UNL1       -0.2751
     12  C10        1.6010    2.0760    0.1960 C.3     1  UNL1        0.0688
     13  C11        2.7380    1.5450    0.9130 C.ar    1  UNL1        0.0780
     14  N2         2.9470    1.9180    2.1890 N.ar    1  UNL1       -0.1748
     15  N3         3.9240    1.4110    2.9230 N.ar    1  UNL1       -0.2425
     16  C12        4.7830    0.4880    2.4580 C.ar    1  UNL1        0.2725
     17  O2         5.6880    0.0410    3.1990 O.2     1  UNL1       -0.2658
     18  C13        4.6330    0.0590    1.1630 C.ar    1  UNL1        0.0496
     19  C14        5.4840   -0.8850    0.6010 C.ar    1  UNL1       -0.0487
     20  C15        5.3180   -1.2910   -0.7050 C.ar    1  UNL1       -0.0610
     21  C16        4.2990   -0.7450   -1.4410 C.ar    1  UNL1       -0.0611
     22  C17        3.4490    0.2010   -0.8720 C.ar    1  UNL1       -0.0521
     23  C18        3.6050    0.5980    0.4070 C.ar    1  UNL1        0.0108
     24  C19       -2.3780    0.0440   -0.3240 C.ar    1  UNL1       -0.0370
     25 H          -5.8085    1.7774    0.1456 H       1  UNL1        0.0235
     26 H          -4.3564    1.7779   -0.8263 H       1  UNL1        0.0235
     27 H          -4.2419    1.6952    0.9153 H       1  UNL1        0.0235
     28 H          -5.2861   -0.4761    0.9001 H       1  UNL1        0.0343
     29 H          -5.2273   -0.0767   -2.1250 H       1  UNL1        0.0235
     30 H          -6.6783   -0.0622   -1.1516 H       1  UNL1        0.0235
     31 H          -5.7597   -1.5380   -1.3286 H       1  UNL1        0.0235
     32 H          -4.2228   -2.6527    0.1215 H       1  UNL1        0.0620
     33 H          -2.0482   -3.6938   -0.0672 H       1  UNL1        0.0618
     34 H          -0.0839   -2.3350   -0.4205 H       1  UNL1        0.0636
     35 H           0.4962    0.3091   -1.5215 H       1  UNL1        0.1548
     36 H           1.3651    3.0503    0.5702 H       1  UNL1        0.0423
     37 H           1.8332    2.1444   -0.8463 H       1  UNL1        0.0423
     38 H           4.0263    1.7237    3.8509 H       1  UNL1        0.1921
     39 H           6.2478   -1.2858    1.1675 H       1  UNL1        0.0625
     40 H           5.9493   -1.9933   -1.1213 H       1  UNL1        0.0618
     41 H           4.1606   -1.0360   -2.4214 H       1  UNL1        0.0618
     42 H           2.6871    0.6047   -1.4391 H       1  UNL1        0.0624
     43 H          -2.4623    1.0701   -0.3950 H       1  UNL1        0.0639
@<TRIPOS>BOND
     1     1     2    1
     2     2     3    1
     3     2     4    1
     4     4     5   ar
     5     4    24   ar
     6     5     6   ar
     7     6     7   ar
     8     7     8   ar
     9     8     9    1
    10     8    24   ar
    11     9    10   am
    12    10    11    2
    13    10    12    1
    14    12    13    1
    15    13    14   ar
    16    13    23   ar
    17    14    15   ar
    18    15    16   ar
    19    16    17    2
    20    16    18   ar
    21    18    19   ar
    22    18    23   ar
    23    19    20   ar
    24    20    21   ar
    25    21    22   ar
    26    22    23   ar
    27     1    25    1
    28     1    26    1
    29     1    27    1
    30     2    28    1
    31     3    29    1
    32     3    30    1
    33     3    31    1
    34     5    32    1
    35     6    33    1
    36     7    34    1
    37     9    35    1
    38    12    36    1
    39    12    37    1
    40    15    38    1
    41    19    39    1
    42    20    40    1
    43    21    41    1
    44    22    42    1
    45    24    43    1
@<TRIPOS>MOLECULE
../data/bude_mols_rdkit_confs2/molecule_18.pdb
 43 45 0 0 0
SMALL
GASTEIGER

@<TRIPOS>ATOM
      1  C1        -5.5140    1.2340   -0.8650 C.3     1  UNL1       -0.0586
      2  C2        -4.9830    0.6910    0.4700 C.3     1  UNL1       -0.0215
      3  C3        -6.1010    0.0110    1.1990 C.3     1  UNL1       -0.0586
      4  C4        -3.8650   -0.2000    0.1400 C.ar    1  UNL1       -0.0430
      5  C5        -4.1310   -1.5150   -0.1400 C.ar    1  UNL1       -0.0582
      6  C6        -3.1490   -2.4010   -0.4750 C.ar    1  UNL1       -0.0597
      7  C7        -1.8390   -1.9140   -0.5250 C.ar    1  UNL1       -0.0405
      8  C8        -1.5190   -0.5980   -0.2540 C.ar    1  UNL1        0.0337
      9  N1        -0.1760   -0.2210   -0.3530 N.am    1  UNL1       -0.2852
     10  C9         0.4290    1.0410   -0.2580 C.2     1  UNL1        0.2231
     11  O1        -0.3670    2.0440   -0.0230 O.2     1  UNL1       -0.2751
     12  C10        1.8850    1.3240   -0.3920 C.3     1  UNL1        0.0688
     13  C11        2.7690    0.3500    0.2200 C.ar    1  UNL1        0.0780
     14  N2         2.3630   -0.6750    0.9750 N.ar    1  UNL1       -0.1748
     15  N3         3.1960   -1.5720    1.4700 N.ar    1  UNL1       -0.2425
     16  C12        4.5190   -1.5170    1.2480 C.ar    1  UNL1        0.2725
     17  O2         5.3270   -2.3950    1.7180 O.2     1  UNL1       -0.2658
     18  C13        5.0410   -0.4820    0.4710 C.ar    1  UNL1        0.0496
     19  C14        6.4020   -0.4350    0.2230 C.ar    1  UNL1       -0.0487
     20  C15        6.9040    0.5670   -0.5490 C.ar    1  UNL1       -0.0610
     21  C16        6.0550    1.5170   -1.0680 C.ar    1  UNL1       -0.0611
     22  C17        4.6820    1.4620   -0.8150 C.ar    1  UNL1       -0.0521
     23  C18        4.1510    0.4410   -0.0290 C.ar    1  UNL1        0.0108
     24  C19       -2.5290    0.2560    0.0780 C.ar    1  UNL1       -0.0370
     25 H          -6.3359    1.8937   -0.6801 H       1  UNL1        0.0235
     26 H          -5.8412    0.4193   -1.4766 H       1  UNL1        0.0235
     27 H          -4.7348    1.7674   -1.3683 H       1  UNL1        0.0235
     28 H          -4.6260    1.4564    1.1270 H       1  UNL1        0.0343
     29 H          -6.5020   -0.7705    0.5880 H       1  UNL1        0.0235
     30 H          -6.8694    0.7228    1.4174 H       1  UNL1        0.0235
     31 H          -5.7302   -0.4051    2.1124 H       1  UNL1        0.0235
     32 H          -5.1074   -1.8463   -0.0959 H       1  UNL1        0.0620
     33 H          -3.3639   -3.3888   -0.6827 H       1  UNL1        0.0618
     34 H          -1.0789   -2.5658   -0.7751 H       1  UNL1        0.0636
     35 H           0.4483   -0.9645   -0.5165 H       1  UNL1        0.1548
     36 H           2.0790    2.2747    0.0591 H       1  UNL1        0.0423
     37 H           2.0951    1.2936   -1.4407 H       1  UNL1        0.0423
     38 H           2.8353   -2.3048    2.0196 H       1  UNL1        0.1921
     39 H           7.0294   -1.1522    0.6193 H       1  UNL1        0.0625
     40 H           7.9163    0.6140   -0.7441 H       1  UNL1        0.0618
     41 H           6.4365    2.2786   -1.6506 H       1  UNL1        0.0618
     42 H           4.0577    2.1813   -1.2123 H       1  UNL1        0.0624
     43 H          -2.3157    1.2441    0.2858 H       1  UNL1        0.0639
@<TRIPOS>BOND
     1     1     2    1
     2     2     3    1
     3     2     4    1
     4     4     5   ar
     5     4    24   ar
     6     5     6   ar
     7     6     7   ar
     8     7     8   ar
     9     8     9    1
    10     8    24   ar
    11     9    10   am
    12    10    11    2
    13    10    12    1
    14    12    13    1
    15    13    14   ar
    16    13    23   ar
    17    14    15   ar
    18    15    16   ar
    19    16    17    2
    20    16    18   ar
    21    18    19   ar
    22    18    23   ar
    23    19    20   ar
    24    20    21   ar
    25    21    22   ar
    26    22    23   ar
    27     1    25    1
    28     1    26    1
    29     1    27    1
    30     2    28    1
    31     3    29    1
    32     3    30    1
    33     3    31    1
    34     5    32    1
    35     6    33    1
    36     7    34    1
    37     9    35    1
    38    12    36    1
    39    12    37    1
    40    15    38    1
    41    19    39    1
    42    20    40    1
    43    21    41    1
    44    22    42    1
    45    24    43    1
@<TRIPOS>MOLECULE
../data/bude_mols_rdkit_confs2/molecule_18.pdb
 43 45 0 0 0
SMALL
GASTEIGER

@<TRIPOS>ATOM
      1  C1         3.9490    2.0030    1.1080 C.3     1  UNL1       -0.0586
      2  C2         4.2230    1.0150   -0.0430 C.3     1  UNL1       -0.0215
      3  C3         3.9090    1.6540   -1.3560 C.3     1  UNL1       -0.0586
      4  C4         3.3980   -0.1840    0.2730 C.ar    1  UNL1       -0.0430
      5  C5         3.9170   -1.2230    1.0170 C.ar    1  UNL1       -0.0582
      6  C6         3.1460   -2.3340    1.3130 C.ar    1  UNL1       -0.0597
      7  C7         1.8500   -2.3680    0.8430 C.ar    1  UNL1       -0.0405
      8  C8         1.2720   -1.3690    0.0990 C.ar    1  UNL1        0.0337
      9  N1        -0.0910   -1.4350   -0.3260 N.am    1  UNL1       -0.2852
     10  C9        -0.5900   -0.7970   -1.4960 C.2     1  UNL1        0.2231
     11  O1         0.2480   -0.1490   -2.1970 O.2     1  UNL1       -0.2751
     12  C10       -1.9750   -0.8120   -1.9640 C.3     1  UNL1        0.0688
     13  C11       -2.9650   -0.9430   -0.8860 C.ar    1  UNL1        0.0780
     14  N2        -3.7020   -2.0510   -0.7280 N.ar    1  UNL1       -0.1748
     15  N3        -4.6020   -2.2080    0.2070 N.ar    1  UNL1       -0.2425
     16  C12       -4.8570   -1.2460    1.0940 C.ar    1  UNL1        0.2725
     17  O2        -5.7280   -1.4130    1.9880 O.2     1  UNL1       -0.2658
     18  C13       -4.1470   -0.0650    1.0120 C.ar    1  UNL1        0.0496
     19  C14       -4.3470    0.9680    1.9030 C.ar    1  UNL1       -0.0487
     20  C15       -3.6190    2.1330    1.8140 C.ar    1  UNL1       -0.0610
     21  C16       -2.6730    2.2680    0.8140 C.ar    1  UNL1       -0.0611
     22  C17       -2.4830    1.2310   -0.0690 C.ar    1  UNL1       -0.0521
     23  C18       -3.1970    0.0910    0.0200 C.ar    1  UNL1        0.0108
     24  C19        2.0880   -0.2740   -0.1730 C.ar    1  UNL1       -0.0370
     25 H           4.5123    2.8990    0.9506 H       1  UNL1        0.0235
     26 H           4.2390    1.5579    2.0368 H       1  UNL1        0.0235
     27 H           2.9055    2.2379    1.1356 H       1  UNL1        0.0235
     28 H           5.2500    0.7275   -0.1300 H       1  UNL1        0.0343
     29 H           2.8889    1.9770   -1.3606 H       1  UNL1        0.0235
     30 H           4.0623    0.9456   -2.1431 H       1  UNL1        0.0235
     31 H           4.5508    2.4971   -1.5049 H       1  UNL1        0.0235
     32 H           4.8902   -1.1716    1.3565 H       1  UNL1        0.0620
     33 H           3.5299   -3.1140    1.8691 H       1  UNL1        0.0618
     34 H           1.2777   -3.1976    1.0647 H       1  UNL1        0.0636
     35 H          -0.7225   -1.9529    0.2237 H       1  UNL1        0.1548
     36 H          -2.0954   -1.6372   -2.6344 H       1  UNL1        0.0423
     37 H          -2.1536    0.1307   -2.4377 H       1  UNL1        0.0423
     38 H          -5.1021   -3.0546    0.2572 H       1  UNL1        0.1921
     39 H          -5.0535    0.8663    2.6483 H       1  UNL1        0.0625
     40 H          -3.7777    2.8988    2.4874 H       1  UNL1        0.0618
     41 H          -2.1180    3.1341    0.7317 H       1  UNL1        0.0618
     42 H          -1.7781    1.3277   -0.8165 H       1  UNL1        0.0624
     43 H           1.7014    0.5038   -0.7303 H       1  UNL1        0.0639
@<TRIPOS>BOND
     1     1     2    1
     2     2     3    1
     3     2     4    1
     4     4     5   ar
     5     4    24   ar
     6     5     6   ar
     7     6     7   ar
     8     7     8   ar
     9     8     9    1
    10     8    24   ar
    11     9    10   am
    12    10    11    2
    13    10    12    1
    14    12    13    1
    15    13    14   ar
    16    13    23   ar
    17    14    15   ar
    18    15    16   ar
    19    16    17    2
    20    16    18   ar
    21    18    19   ar
    22    18    23   ar
    23    19    20   ar
    24    20    21   ar
    25    21    22   ar
    26    22    23   ar
    27     1    25    1
    28     1    26    1
    29     1    27    1
    30     2    28    1
    31     3    29    1
    32     3    30    1
    33     3    31    1
    34     5    32    1
    35     6    33    1
    36     7    34    1
    37     9    35    1
    38    12    36    1
    39    12    37    1
    40    15    38    1
    41    19    39    1
    42    20    40    1
    43    21    41    1
    44    22    42    1
    45    24    43    1
@<TRIPOS>MOLECULE
../data/bude_mols_rdkit_confs2/molecule_18.pdb
 43 45 0 0 0
SMALL
GASTEIGER

@<TRIPOS>ATOM
      1  C1        -3.3710   -2.0600   -1.0180 C.3     1  UNL1       -0.0586
      2  C2        -4.1790   -1.0270   -0.2680 C.3     1  UNL1       -0.0215
      3  C3        -4.2300   -1.3540    1.2260 C.3     1  UNL1       -0.0586
      4  C4        -3.5980    0.3320   -0.3820 C.ar    1  UNL1       -0.0430
      5  C5        -4.3930    1.3630   -0.8210 C.ar    1  UNL1       -0.0582
      6  C6        -3.8820    2.6400   -0.9390 C.ar    1  UNL1       -0.0597
      7  C7        -2.5650    2.8540   -0.6100 C.ar    1  UNL1       -0.0405
      8  C8        -1.7310    1.8460   -0.1650 C.ar    1  UNL1        0.0337
      9  N1        -0.4040    2.1470    0.1600 N.am    1  UNL1       -0.2852
     10  C9         0.6460    1.2580    0.4760 C.2     1  UNL1        0.2231
     11  O1         0.4300    0.0310    0.4810 O.2     1  UNL1       -0.2751
     12  C10        2.0290    1.7560    0.8090 C.3     1  UNL1        0.0688
     13  C11        2.9430    0.6300    1.0930 C.ar    1  UNL1        0.0780
     14  N2         3.3100    0.3010    2.3450 N.ar    1  UNL1       -0.1748
     15  N3         4.1370   -0.7220    2.5940 N.ar    1  UNL1       -0.2425
     16  C12        4.6580   -1.4890    1.6360 C.ar    1  UNL1        0.2725
     17  O2         5.4300   -2.4430    1.8700 O.2     1  UNL1       -0.2658
     18  C13        4.3230   -1.2070    0.3190 C.ar    1  UNL1        0.0496
     19  C14        4.8470   -1.9830   -0.7080 C.ar    1  UNL1       -0.0487
     20  C15        4.4610   -1.6310   -1.9830 C.ar    1  UNL1       -0.0610
     21  C16        3.6120   -0.5840   -2.2620 C.ar    1  UNL1       -0.0611
     22  C17        3.1050    0.1710   -1.2280 C.ar    1  UNL1       -0.0521
     23  C18        3.4650   -0.1450    0.0750 C.ar    1  UNL1        0.0108
     24  C19       -2.2720    0.6070   -0.0620 C.ar    1  UNL1       -0.0370
     25 H          -3.8285   -3.0208   -0.9061 H       1  UNL1        0.0235
     26 H          -2.3768   -2.0903   -0.6236 H       1  UNL1        0.0235
     27 H          -3.3354   -1.8006   -2.0555 H       1  UNL1        0.0235
     28 H          -5.1542   -1.0481   -0.7079 H       1  UNL1        0.0343
     29 H          -3.2404   -1.3239    1.6317 H       1  UNL1        0.0235
     30 H          -4.6421   -2.3319    1.3632 H       1  UNL1        0.0235
     31 H          -4.8432   -0.6349    1.7278 H       1  UNL1        0.0235
     32 H          -5.3793    1.1815   -1.0643 H       1  UNL1        0.0620
     33 H          -4.4763    3.4173   -1.2672 H       1  UNL1        0.0618
     34 H          -2.1824    3.8083   -0.6991 H       1  UNL1        0.0636
     35 H          -0.1722    3.1038    0.1696 H       1  UNL1        0.1548
     36 H           1.9752    2.3888    1.6702 H       1  UNL1        0.0423
     37 H           2.4076    2.2988   -0.0318 H       1  UNL1        0.0423
     38 H           4.3718   -0.9174    3.5299 H       1  UNL1        0.1921
     39 H           5.4853   -2.7735   -0.5270 H       1  UNL1        0.0625
     40 H           4.8291   -2.1834   -2.7732 H       1  UNL1        0.0618
     41 H           3.3575   -0.3666   -3.2382 H       1  UNL1        0.0618
     42 H           2.4672    0.9596   -1.4188 H       1  UNL1        0.0624
     43 H          -1.6738   -0.1664    0.2684 H       1  UNL1        0.0639
@<TRIPOS>BOND
     1     1     2    1
     2     2     3    1
     3     2     4    1
     4     4     5   ar
     5     4    24   ar
     6     5     6   ar
     7     6     7   ar
     8     7     8   ar
     9     8     9    1
    10     8    24   ar
    11     9    10   am
    12    10    11    2
    13    10    12    1
    14    12    13    1
    15    13    14   ar
    16    13    23   ar
    17    14    15   ar
    18    15    16   ar
    19    16    17    2
    20    16    18   ar
    21    18    19   ar
    22    18    23   ar
    23    19    20   ar
    24    20    21   ar
    25    21    22   ar
    26    22    23   ar
    27     1    25    1
    28     1    26    1
    29     1    27    1
    30     2    28    1
    31     3    29    1
    32     3    30    1
    33     3    31    1
    34     5    32    1
    35     6    33    1
    36     7    34    1
    37     9    35    1
    38    12    36    1
    39    12    37    1
    40    15    38    1
    41    19    39    1
    42    20    40    1
    43    21    41    1
    44    22    42    1
    45    24    43    1
