@<TRIPOS>MOLECULE
../data/bude_mols_rdkit_confs2/molecule_92.pdb
 59 63 0 0 0
SMALL
GASTEIGER

@<TRIPOS>ATOM
      1  N1        -6.8350   -1.5950   -0.0500 N.pl3   1  UNL1       -0.2515
      2  C1        -5.8260   -0.6070   -0.1310 C.2     1  UNL1        0.2546
      3  C2        -6.0770    0.6820    0.0130 C.2     1  UNL1        0.0151
      4  C3        -6.9810    1.8490    0.2520 C.3     1  UNL1       -0.0202
      5  C4        -5.5770    2.1130    0.0480 C.3     1  UNL1       -0.0202
      6  N2        -4.4890   -1.0370   -0.3800 N.pl3   1  UNL1       -0.2241
      7  C5        -3.8220   -1.5350    0.8120 C.3     1  UNL1        0.0818
      8  C6        -2.8430   -2.6380    0.4690 C.3     1  UNL1       -0.0009
      9  C7        -1.5160   -1.9350    0.1580 C.3     1  UNL1        0.0185
     10  N3        -1.7660   -1.0360   -0.9420 N.am    1  UNL1       -0.2937
     11  C8        -1.0100    0.1550   -0.9140 C.2     1  UNL1        0.2495
     12  O1        -1.1590    1.0030   -1.8330 O.2     1  UNL1       -0.2699
     13  C9        -0.0420    0.4420    0.1640 C.ar    1  UNL1        0.0723
     14  C10        1.2750    0.0690    0.0910 C.ar    1  UNL1       -0.0433
     15  C11        2.2030    0.3260    1.0880 C.ar    1  UNL1       -0.0406
     16  C12        3.5710   -0.1320    0.8690 C.3     1  UNL1        0.0171
     17  C13        4.4520    0.8290    0.1900 C.ar    1  UNL1        0.0736
     18  N4         4.0950    2.0420   -0.2180 N.ar    1  UNL1       -0.1750
     19  N5         4.9380    2.8460   -0.8170 N.ar    1  UNL1       -0.2425
     20  C14        6.2080    2.5060   -1.0600 C.ar    1  UNL1        0.2725
     21  O2         7.0110    3.3080   -1.6470 O.2     1  UNL1       -0.2658
     22  C15        6.6490    1.2600   -0.6640 C.ar    1  UNL1        0.0496
     23  C16        7.9540    0.8780   -0.8990 C.ar    1  UNL1       -0.0487
     24  C17        8.4110   -0.3740   -0.5050 C.ar    1  UNL1       -0.0610
     25  C18        7.5150   -1.2160    0.1270 C.ar    1  UNL1       -0.0611
     26  C19        6.2160   -0.8170    0.3530 C.ar    1  UNL1       -0.0521
     27  C20        5.7510    0.4310   -0.0370 C.ar    1  UNL1        0.0106
     28  C21        1.7860    0.9940    2.2210 C.ar    1  UNL1       -0.0555
     29  C22        0.4660    1.3750    2.3090 C.ar    1  UNL1       -0.0254
     30  C23       -0.4570    1.1090    1.2970 C.ar    1  UNL1        0.1355
     31  F1        -1.7510    1.4800    1.3770 F       1  UNL1       -0.2047
     32  C24       -2.6650   -1.1950   -2.0350 C.3     1  UNL1        0.0510
     33  C25       -4.0910   -0.8880   -1.7440 C.3     1  UNL1        0.0960
     34 H          -7.7684   -1.3325    0.1208 H       1  UNL1        0.2881
     35 H          -6.6039   -2.5451   -0.1644 H       1  UNL1        0.2881
     36 H          -7.4118    1.9952    1.2205 H       1  UNL1        0.0316
     37 H          -7.8795    2.2015   -0.2099 H       1  UNL1        0.0316
     38 H          -5.2488    2.5854   -0.8542 H       1  UNL1        0.0316
     39 H          -4.8210    2.6331    0.5983 H       1  UNL1        0.0316
     40 H          -4.5566   -1.9180    1.4891 H       1  UNL1        0.0726
     41 H          -3.2810   -0.7281    1.2606 H       1  UNL1        0.0726
     42 H          -3.1833   -3.1865   -0.3844 H       1  UNL1        0.0317
     43 H          -2.7400   -3.3377    1.2720 H       1  UNL1        0.0317
     44 H          -0.7737   -2.6550   -0.1166 H       1  UNL1        0.0466
     45 H          -1.1548   -1.4028    1.0131 H       1  UNL1        0.0466
     46 H           1.5935   -0.4312   -0.7536 H       1  UNL1        0.0629
     47 H           3.5312   -1.0213    0.2753 H       1  UNL1        0.0377
     48 H           3.9918   -0.2851    1.8408 H       1  UNL1        0.0377
     49 H           4.6241    3.7354   -1.0993 H       1  UNL1        0.1921
     50 H           8.5985    1.5299   -1.3731 H       1  UNL1        0.0625
     51 H           9.3858   -0.6651   -0.6783 H       1  UNL1        0.0618
     52 H           7.8223   -2.1526    0.4325 H       1  UNL1        0.0618
     53 H           5.5687   -1.4662    0.8269 H       1  UNL1        0.0624
     54 H           2.4481    1.2031    2.9845 H       1  UNL1        0.0621
     55 H           0.1478    1.8752    3.1537 H       1  UNL1        0.0646
     56 H          -2.6075   -2.2118   -2.3633 H       1  UNL1        0.0502
     57 H          -2.3572   -0.4840   -2.7730 H       1  UNL1        0.0502
     58 H          -4.2746    0.1262   -2.0315 H       1  UNL1        0.0742
     59 H          -4.6630   -1.6046   -2.2956 H       1  UNL1        0.0742
@<TRIPOS>BOND
     1     1     2    1
     2     2     3    2
     3     2     6    1
     4     3     4    1
     5     3     5    1
     6     4     5    1
     7     6     7    1
     8     6    33    1
     9     7     8    1
    10     8     9    1
    11     9    10    1
    12    10    11   am
    13    10    32    1
    14    11    12    2
    15    11    13    1
    16    13    14   ar
    17    13    30   ar
    18    14    15   ar
    19    15    16    1
    20    15    28   ar
    21    16    17    1
    22    17    18   ar
    23    17    27   ar
    24    18    19   ar
    25    19    20   ar
    26    20    21    2
    27    20    22   ar
    28    22    23   ar
    29    22    27   ar
    30    23    24   ar
    31    24    25   ar
    32    25    26   ar
    33    26    27   ar
    34    28    29   ar
    35    29    30   ar
    36    30    31    1
    37    32    33    1
    38     1    34    1
    39     1    35    1
    40     4    36    1
    41     4    37    1
    42     5    38    1
    43     5    39    1
    44     7    40    1
    45     7    41    1
    46     8    42    1
    47     8    43    1
    48     9    44    1
    49     9    45    1
    50    14    46    1
    51    16    47    1
    52    16    48    1
    53    19    49    1
    54    23    50    1
    55    24    51    1
    56    25    52    1
    57    26    53    1
    58    28    54    1
    59    29    55    1
    60    32    56    1
    61    32    57    1
    62    33    58    1
    63    33    59    1
@<TRIPOS>MOLECULE
../data/bude_mols_rdkit_confs2/molecule_92.pdb
 59 63 0 0 0
SMALL
GASTEIGER

@<TRIPOS>ATOM
      1  N1         5.0540    0.3750    1.8140 N.pl3   1  UNL1       -0.2515
      2  C1         5.2670   -0.1000    0.5020 C.2     1  UNL1        0.2546
      3  C2         6.4710   -0.4840    0.1450 C.2     1  UNL1        0.0151
      4  C3         7.4690   -1.0310   -0.8520 C.3     1  UNL1       -0.0202
      5  C4         7.9530   -0.7120    0.4890 C.3     1  UNL1       -0.0202
      6  N2         4.2440   -0.1990   -0.4880 N.pl3   1  UNL1       -0.2241
      7  C5         4.4310    0.5530   -1.6930 C.3     1  UNL1        0.0818
      8  C6         3.6300    1.8160   -1.7210 C.3     1  UNL1       -0.0009
      9  C7         2.7540    2.0300   -0.5360 C.3     1  UNL1        0.0185
     10  N3         1.7850    0.9890   -0.3350 N.am    1  UNL1       -0.2937
     11  C8         0.5760    1.4190    0.2650 C.2     1  UNL1        0.2495
     12  O1         0.4410    2.6350    0.5560 O.2     1  UNL1       -0.2699
     13  C9        -0.4660    0.4330    0.5240 C.ar    1  UNL1        0.0723
     14  C10       -1.4400    0.0840   -0.3770 C.ar    1  UNL1       -0.0433
     15  C11       -2.4170   -0.8960   -0.0880 C.ar    1  UNL1       -0.0406
     16  C12       -3.4130   -1.2080   -1.1490 C.3     1  UNL1        0.0171
     17  C13       -4.5510   -0.2910   -1.1840 C.ar    1  UNL1        0.0736
     18  N4        -4.4490    0.7900   -2.0140 N.ar    1  UNL1       -0.1750
     19  N5        -5.3370    1.7300   -2.1300 N.ar    1  UNL1       -0.2425
     20  C14       -6.4720    1.6730   -1.3860 C.ar    1  UNL1        0.2725
     21  O2        -7.3510    2.5810   -1.4840 O.2     1  UNL1       -0.2658
     22  C15       -6.6760    0.6420   -0.5310 C.ar    1  UNL1        0.0496
     23  C16       -7.8050    0.4970    0.2460 C.ar    1  UNL1       -0.0487
     24  C17       -8.0220   -0.5660    1.1040 C.ar    1  UNL1       -0.0610
     25  C18       -7.0310   -1.5200    1.1630 C.ar    1  UNL1       -0.0611
     26  C19       -5.8760   -1.4220    0.4040 C.ar    1  UNL1       -0.0521
     27  C20       -5.6920   -0.3490   -0.4390 C.ar    1  UNL1        0.0106
     28  C21       -2.3710   -1.5010    1.1330 C.ar    1  UNL1       -0.0555
     29  C22       -1.3880   -1.1650    2.0770 C.ar    1  UNL1       -0.0254
     30  C23       -0.4600   -0.2050    1.7470 C.ar    1  UNL1        0.1355
     31  F1         0.4830    0.1170    2.6510 F       1  UNL1       -0.2047
     32  C24        1.8140   -0.4320   -0.6360 C.3     1  UNL1        0.0510
     33  C25        3.1090   -1.0640   -0.1770 C.3     1  UNL1        0.0960
     34 H           5.8044    0.4181    2.4498 H       1  UNL1        0.2881
     35 H           4.1550    0.6632    2.0933 H       1  UNL1        0.2881
     36 H           7.7730   -0.4272   -1.6814 H       1  UNL1        0.0316
     37 H           7.5028   -1.9069   -1.4657 H       1  UNL1        0.0316
     38 H           8.2305   -1.5000    1.1576 H       1  UNL1        0.0316
     39 H           8.7384   -0.1001    0.8810 H       1  UNL1        0.0316
     40 H           4.1390   -0.0550   -2.5237 H       1  UNL1        0.0726
     41 H           5.4642    0.8267   -1.7437 H       1  UNL1        0.0726
     42 H           3.0104    1.7972   -2.5932 H       1  UNL1        0.0317
     43 H           4.3368    2.6193   -1.7203 H       1  UNL1        0.0317
     44 H           2.2328    2.9556   -0.6647 H       1  UNL1        0.0466
     45 H           3.3899    2.0338    0.3246 H       1  UNL1        0.0466
     46 H          -1.4601    0.5525   -1.2963 H       1  UNL1        0.0629
     47 H          -3.7835   -2.1979   -0.9822 H       1  UNL1        0.0377
     48 H          -2.9074   -1.1101   -2.0869 H       1  UNL1        0.0377
     49 H          -5.1889    2.4783   -2.7524 H       1  UNL1        0.1921
     50 H          -8.5329    1.2260    0.1839 H       1  UNL1        0.0625
     51 H          -8.8816   -0.6401    1.6702 H       1  UNL1        0.0618
     52 H          -7.1519   -2.3307    1.7901 H       1  UNL1        0.0618
     53 H          -5.1522   -2.1546    0.4706 H       1  UNL1        0.0624
     54 H          -3.0728   -2.2202    1.3678 H       1  UNL1        0.0621
     55 H          -1.3622   -1.6283    2.9988 H       1  UNL1        0.0646
     56 H           1.7158   -0.5666   -1.6929 H       1  UNL1        0.0502
     57 H           1.0054   -0.9038   -0.1178 H       1  UNL1        0.0502
     58 H           3.0672   -1.2222    0.8804 H       1  UNL1        0.0742
     59 H           3.2368   -1.9960   -0.6869 H       1  UNL1        0.0742
@<TRIPOS>BOND
     1     1     2    1
     2     2     3    2
     3     2     6    1
     4     3     4    1
     5     3     5    1
     6     4     5    1
     7     6     7    1
     8     6    33    1
     9     7     8    1
    10     8     9    1
    11     9    10    1
    12    10    11   am
    13    10    32    1
    14    11    12    2
    15    11    13    1
    16    13    14   ar
    17    13    30   ar
    18    14    15   ar
    19    15    16    1
    20    15    28   ar
    21    16    17    1
    22    17    18   ar
    23    17    27   ar
    24    18    19   ar
    25    19    20   ar
    26    20    21    2
    27    20    22   ar
    28    22    23   ar
    29    22    27   ar
    30    23    24   ar
    31    24    25   ar
    32    25    26   ar
    33    26    27   ar
    34    28    29   ar
    35    29    30   ar
    36    30    31    1
    37    32    33    1
    38     1    34    1
    39     1    35    1
    40     4    36    1
    41     4    37    1
    42     5    38    1
    43     5    39    1
    44     7    40    1
    45     7    41    1
    46     8    42    1
    47     8    43    1
    48     9    44    1
    49     9    45    1
    50    14    46    1
    51    16    47    1
    52    16    48    1
    53    19    49    1
    54    23    50    1
    55    24    51    1
    56    25    52    1
    57    26    53    1
    58    28    54    1
    59    29    55    1
    60    32    56    1
    61    32    57    1
    62    33    58    1
    63    33    59    1
@<TRIPOS>MOLECULE
../data/bude_mols_rdkit_confs2/molecule_92.pdb
 59 63 0 0 0
SMALL
GASTEIGER

@<TRIPOS>ATOM
      1  N1         5.7440   -0.6220   -0.9020 N.pl3   1  UNL1       -0.2515
      2  C1         4.9390    0.5410   -1.1280 C.2     1  UNL1        0.2546
      3  C2         5.5090    1.7280   -1.3280 C.2     1  UNL1        0.0151
      4  C3         5.4420    3.1740   -1.5890 C.3     1  UNL1       -0.0202
      5  C4         6.7880    2.4800   -1.4390 C.3     1  UNL1       -0.0202
      6  N2         3.5280    0.3740   -1.1320 N.pl3   1  UNL1       -0.2241
      7  C5         2.7040    1.4460   -0.6600 C.3     1  UNL1        0.0818
      8  C6         1.7500    0.9780    0.4430 C.3     1  UNL1       -0.0009
      9  C7         0.8580   -0.1270   -0.0510 C.3     1  UNL1        0.0185
     10  N3         1.5360   -1.3830    0.1760 N.am    1  UNL1       -0.2937
     11  C8         0.9360   -2.2340    1.1270 C.2     1  UNL1        0.2495
     12  O1         1.4610   -3.3460    1.3790 O.2     1  UNL1       -0.2699
     13  C9        -0.2780   -1.8080    1.7960 C.ar    1  UNL1        0.0723
     14  C10       -1.5100   -2.0890    1.2640 C.ar    1  UNL1       -0.0433
     15  C11       -2.6980   -1.6890    1.8880 C.ar    1  UNL1       -0.0406
     16  C12       -3.9310   -2.0930    1.1670 C.3     1  UNL1        0.0171
     17  C13       -4.1550   -1.3250   -0.0600 C.ar    1  UNL1        0.0736
     18  N4        -3.7280   -1.8060   -1.2630 N.ar    1  UNL1       -0.1750
     19  N5        -3.8390   -1.1540   -2.3960 N.ar    1  UNL1       -0.2425
     20  C14       -4.3920    0.0690   -2.4790 C.ar    1  UNL1        0.2725
     21  O2        -4.5070    0.7060   -3.5370 O.2     1  UNL1       -0.2658
     22  C15       -4.8520    0.6150   -1.2710 C.ar    1  UNL1        0.0496
     23  C16       -5.4350    1.8530   -1.3050 C.ar    1  UNL1       -0.0487
     24  C17       -5.9110    2.4140   -0.1420 C.ar    1  UNL1       -0.0610
     25  C18       -5.8040    1.7420    1.0480 C.ar    1  UNL1       -0.0611
     26  C19       -5.2180    0.5040    1.0760 C.ar    1  UNL1       -0.0521
     27  C20       -4.7360   -0.0720   -0.0780 C.ar    1  UNL1        0.0106
     28  C21       -2.6380   -0.9990    3.0620 C.ar    1  UNL1       -0.0555
     29  C22       -1.4010   -0.7130    3.6030 C.ar    1  UNL1       -0.0254
     30  C23       -0.2340   -1.1030    2.9940 C.ar    1  UNL1        0.1355
     31  F1         0.9910   -0.8210    3.5250 F       1  UNL1       -0.2047
     32  C24        2.7550   -1.8270   -0.4790 C.3     1  UNL1        0.0510
     33  C25        3.1040   -0.9260   -1.6400 C.3     1  UNL1        0.0960
     34 H           6.7256   -0.5469   -0.8919 H       1  UNL1        0.2881
     35 H           5.3157   -1.4965   -0.7567 H       1  UNL1        0.2881
     36 H           5.0948    3.8407   -0.8275 H       1  UNL1        0.0316
     37 H           4.9848    3.7902   -2.3348 H       1  UNL1        0.0316
     38 H           7.4216    2.3431   -2.2903 H       1  UNL1        0.0316
     39 H           7.6531    2.6132   -0.8235 H       1  UNL1        0.0316
     40 H           2.1292    1.8284   -1.4775 H       1  UNL1        0.0726
     41 H           3.3403    2.2042   -0.2536 H       1  UNL1        0.0726
     42 H           1.1448    1.8031    0.7559 H       1  UNL1        0.0317
     43 H           2.3305    0.6079    1.2621 H       1  UNL1        0.0317
     44 H           0.6681   -0.0005   -1.0964 H       1  UNL1        0.0466
     45 H          -0.0773   -0.1101    0.4684 H       1  UNL1        0.0466
     46 H          -1.5634   -2.6117    0.3758 H       1  UNL1        0.0629
     47 H          -4.7686   -1.9489    1.8170 H       1  UNL1        0.0377
     48 H          -3.8152   -3.1188    0.8855 H       1  UNL1        0.0377
     49 H          -3.5037   -1.5774   -3.2192 H       1  UNL1        0.1921
     50 H          -5.5172    2.3631   -2.1983 H       1  UNL1        0.0625
     51 H          -6.3515    3.3470   -0.1659 H       1  UNL1        0.0618
     52 H          -6.1628    2.1662    1.9177 H       1  UNL1        0.0618
     53 H          -5.1370   -0.0023    1.9716 H       1  UNL1        0.0624
     54 H          -3.5021   -0.6959    3.5378 H       1  UNL1        0.0621
     55 H          -1.3518   -0.1905    4.4916 H       1  UNL1        0.0646
     56 H           2.6151   -2.8245   -0.8399 H       1  UNL1        0.0502
     57 H           3.5550   -1.7942    0.2308 H       1  UNL1        0.0502
     58 H           3.8987   -1.3648   -2.2064 H       1  UNL1        0.0742
     59 H           2.2465   -0.8027   -2.2680 H       1  UNL1        0.0742
@<TRIPOS>BOND
     1     1     2    1
     2     2     3    2
     3     2     6    1
     4     3     4    1
     5     3     5    1
     6     4     5    1
     7     6     7    1
     8     6    33    1
     9     7     8    1
    10     8     9    1
    11     9    10    1
    12    10    11   am
    13    10    32    1
    14    11    12    2
    15    11    13    1
    16    13    14   ar
    17    13    30   ar
    18    14    15   ar
    19    15    16    1
    20    15    28   ar
    21    16    17    1
    22    17    18   ar
    23    17    27   ar
    24    18    19   ar
    25    19    20   ar
    26    20    21    2
    27    20    22   ar
    28    22    23   ar
    29    22    27   ar
    30    23    24   ar
    31    24    25   ar
    32    25    26   ar
    33    26    27   ar
    34    28    29   ar
    35    29    30   ar
    36    30    31    1
    37    32    33    1
    38     1    34    1
    39     1    35    1
    40     4    36    1
    41     4    37    1
    42     5    38    1
    43     5    39    1
    44     7    40    1
    45     7    41    1
    46     8    42    1
    47     8    43    1
    48     9    44    1
    49     9    45    1
    50    14    46    1
    51    16    47    1
    52    16    48    1
    53    19    49    1
    54    23    50    1
    55    24    51    1
    56    25    52    1
    57    26    53    1
    58    28    54    1
    59    29    55    1
    60    32    56    1
    61    32    57    1
    62    33    58    1
    63    33    59    1
@<TRIPOS>MOLECULE
../data/bude_mols_rdkit_confs2/molecule_92.pdb
 59 63 0 0 0
SMALL
GASTEIGER

@<TRIPOS>ATOM
      1  N1         4.2050    2.7800    1.0490 N.pl3   1  UNL1       -0.2515
      2  C1         4.1850    2.4260   -0.3360 C.2     1  UNL1        0.2546
      3  C2         4.5160    3.3720   -1.2340 C.2     1  UNL1        0.0151
      4  C3         4.9150    4.5950   -1.8750 C.3     1  UNL1       -0.0202
      5  C4         4.7070    3.4330   -2.7730 C.3     1  UNL1       -0.0202
      6  N2         3.8330    1.1220   -0.6900 N.pl3   1  UNL1       -0.2241
      7  C5         4.5210    0.1290    0.1430 C.3     1  UNL1        0.0818
      8  C6         4.5100   -1.1830   -0.6120 C.3     1  UNL1       -0.0009
      9  C7         3.2410   -1.9050   -0.2370 C.3     1  UNL1        0.0185
     10  N3         2.1280   -1.0120   -0.5130 N.am    1  UNL1       -0.2937
     11  C8         1.1140   -1.0490    0.4740 C.2     1  UNL1        0.2495
     12  O1         1.2060   -1.7840    1.5090 O.2     1  UNL1       -0.2699
     13  C9        -0.0660   -0.2270    0.3120 C.ar    1  UNL1        0.0723
     14  C10       -1.1810   -0.8270   -0.2740 C.ar    1  UNL1       -0.0433
     15  C11       -2.3830   -0.1360   -0.4560 C.ar    1  UNL1       -0.0406
     16  C12       -3.4580   -0.9070   -1.0900 C.3     1  UNL1        0.0171
     17  C13       -3.9980   -1.8860   -0.1620 C.ar    1  UNL1        0.0736
     18  N4        -3.5000   -3.1520   -0.2050 N.ar    1  UNL1       -0.1750
     19  N5        -3.8960   -4.0990    0.6260 N.ar    1  UNL1       -0.2425
     20  C14       -4.8190   -3.8650    1.5690 C.ar    1  UNL1        0.2725
     21  O2        -5.2200   -4.7440    2.3800 O.2     1  UNL1       -0.2658
     22  C15       -5.3730   -2.6150    1.6800 C.ar    1  UNL1        0.0496
     23  C16       -6.3350   -2.3010    2.6140 C.ar    1  UNL1       -0.0487
     24  C17       -6.9090   -1.0610    2.7300 C.ar    1  UNL1       -0.0610
     25  C18       -6.4900   -0.0830    1.8550 C.ar    1  UNL1       -0.0611
     26  C19       -5.5200   -0.3840    0.9080 C.ar    1  UNL1       -0.0521
     27  C20       -4.9340   -1.6310    0.7830 C.ar    1  UNL1        0.0106
     28  C21       -2.4570    1.1480   -0.0520 C.ar    1  UNL1       -0.0555
     29  C22       -1.3460    1.7760    0.5430 C.ar    1  UNL1       -0.0254
     30  C23       -0.1800    1.0750    0.7100 C.ar    1  UNL1        0.1355
     31  F1         0.9170    1.6460    1.2760 F       1  UNL1       -0.2047
     32  C24        1.8960   -0.1250   -1.5980 C.3     1  UNL1        0.0510
     33  C25        2.9030    0.9730   -1.7620 C.3     1  UNL1        0.0960
     34 H           4.4504    3.6941    1.3199 H       1  UNL1        0.2881
     35 H           3.9734    2.1097    1.7318 H       1  UNL1        0.2881
     36 H           5.9064    4.9670   -1.7216 H       1  UNL1        0.0316
     37 H           4.5216    5.5900   -1.8626 H       1  UNL1        0.0316
     38 H           3.8619    3.3959   -3.4282 H       1  UNL1        0.0316
     39 H           5.2816    2.9054   -3.5053 H       1  UNL1        0.0316
     40 H           4.0099    0.0178    1.0764 H       1  UNL1        0.0726
     41 H           5.5248    0.4383    0.3472 H       1  UNL1        0.0726
     42 H           5.3607   -1.7709   -0.3371 H       1  UNL1        0.0317
     43 H           4.5515   -1.0131   -1.6676 H       1  UNL1        0.0317
     44 H           3.2579   -2.1559    0.8030 H       1  UNL1        0.0466
     45 H           3.1441   -2.8103   -0.7991 H       1  UNL1        0.0466
     46 H          -1.1168   -1.8098   -0.5822 H       1  UNL1        0.0629
     47 H          -3.0690   -1.4131   -1.9488 H       1  UNL1        0.0377
     48 H          -4.2401   -0.2366   -1.3795 H       1  UNL1        0.0377
     49 H          -3.5036   -4.9988    0.5509 H       1  UNL1        0.1921
     50 H          -6.6416   -3.0415    3.2641 H       1  UNL1        0.0625
     51 H          -7.6273   -0.8679    3.4454 H       1  UNL1        0.0618
     52 H          -6.8937    0.8656    1.9029 H       1  UNL1        0.0618
     53 H          -5.2199    0.3631    0.2624 H       1  UNL1        0.0624
     54 H          -3.3351    1.6750   -0.1798 H       1  UNL1        0.0621
     55 H          -1.4093    2.7587    0.8517 H       1  UNL1        0.0646
     56 H           0.9366    0.3266   -1.4550 H       1  UNL1        0.0502
     57 H           1.9651   -0.7210   -2.4839 H       1  UNL1        0.0502
     58 H           3.4589    0.7791   -2.6555 H       1  UNL1        0.0742
     59 H           2.3413    1.8833   -1.7908 H       1  UNL1        0.0742
@<TRIPOS>BOND
     1     1     2    1
     2     2     3    2
     3     2     6    1
     4     3     4    1
     5     3     5    1
     6     4     5    1
     7     6     7    1
     8     6    33    1
     9     7     8    1
    10     8     9    1
    11     9    10    1
    12    10    11   am
    13    10    32    1
    14    11    12    2
    15    11    13    1
    16    13    14   ar
    17    13    30   ar
    18    14    15   ar
    19    15    16    1
    20    15    28   ar
    21    16    17    1
    22    17    18   ar
    23    17    27   ar
    24    18    19   ar
    25    19    20   ar
    26    20    21    2
    27    20    22   ar
    28    22    23   ar
    29    22    27   ar
    30    23    24   ar
    31    24    25   ar
    32    25    26   ar
    33    26    27   ar
    34    28    29   ar
    35    29    30   ar
    36    30    31    1
    37    32    33    1
    38     1    34    1
    39     1    35    1
    40     4    36    1
    41     4    37    1
    42     5    38    1
    43     5    39    1
    44     7    40    1
    45     7    41    1
    46     8    42    1
    47     8    43    1
    48     9    44    1
    49     9    45    1
    50    14    46    1
    51    16    47    1
    52    16    48    1
    53    19    49    1
    54    23    50    1
    55    24    51    1
    56    25    52    1
    57    26    53    1
    58    28    54    1
    59    29    55    1
    60    32    56    1
    61    32    57    1
    62    33    58    1
    63    33    59    1
@<TRIPOS>MOLECULE
../data/bude_mols_rdkit_confs2/molecule_92.pdb
 59 63 0 0 0
SMALL
GASTEIGER

@<TRIPOS>ATOM
      1  N1         6.4810   -1.2260   -1.6960 N.pl3   1  UNL1       -0.2515
      2  C1         5.8350   -0.5800   -0.5950 C.2     1  UNL1        0.2546
      3  C2         6.5760    0.2710    0.0890 C.2     1  UNL1        0.0151
      4  C3         7.8750    0.9960    0.3500 C.3     1  UNL1       -0.0202
      5  C4         6.7540    1.2650    1.2220 C.3     1  UNL1       -0.0202
      6  N2         4.4970   -0.8310   -0.2620 N.pl3   1  UNL1       -0.2241
      7  C5         3.9470   -0.2920    0.9350 C.3     1  UNL1        0.0818
      8  C6         3.0190    0.8590    0.5660 C.3     1  UNL1       -0.0009
      9  C7         1.9750    0.4140   -0.4180 C.3     1  UNL1        0.0185
     10  N3         1.6050   -0.9780   -0.2910 N.am    1  UNL1       -0.2937
     11  C8         0.3530   -1.3150    0.2460 C.2     1  UNL1        0.2495
     12  O1         0.0340   -2.5240    0.3560 O.2     1  UNL1       -0.2699
     13  C9        -0.6240   -0.3200    0.6950 C.ar    1  UNL1        0.0723
     14  C10       -1.5800    0.2050   -0.1310 C.ar    1  UNL1       -0.0433
     15  C11       -2.5140    1.1530    0.2950 C.ar    1  UNL1       -0.0406
     16  C12       -3.4980    1.6750   -0.7050 C.3     1  UNL1        0.0171
     17  C13       -4.5320    0.7310   -1.0940 C.ar    1  UNL1        0.0736
     18  N4        -4.3420    0.0100   -2.2470 N.ar    1  UNL1       -0.1750
     19  N5        -5.1790   -0.8950   -2.6790 N.ar    1  UNL1       -0.2425
     20  C14       -6.3130   -1.2110   -2.0350 C.ar    1  UNL1        0.2725
     21  O2        -7.1190   -2.0770   -2.4430 O.2     1  UNL1       -0.2658
     22  C15       -6.5680   -0.5170   -0.8600 C.ar    1  UNL1        0.0496
     23  C16       -7.7200   -0.7670   -0.1340 C.ar    1  UNL1       -0.0487
     24  C17       -7.9720   -0.0640    1.0240 C.ar    1  UNL1       -0.0610
     25  C18       -7.0820    0.8920    1.4710 C.ar    1  UNL1       -0.0611
     26  C19       -5.9220    1.1610    0.7640 C.ar    1  UNL1       -0.0521
     27  C20       -5.6730    0.4570   -0.3910 C.ar    1  UNL1        0.0106
     28  C21       -2.4500    1.5570    1.5950 C.ar    1  UNL1       -0.0555
     29  C22       -1.4920    1.0360    2.4350 C.ar    1  UNL1       -0.0254
     30  C23       -0.5770    0.1030    2.0050 C.ar    1  UNL1        0.1355
     31  F1         0.3730   -0.4080    2.8590 F       1  UNL1       -0.2047
     32  C24        2.4470   -2.0970   -0.6900 C.3     1  UNL1        0.0510
     33  C25        3.7690   -1.6660   -1.2290 C.3     1  UNL1        0.0960
     34 H           7.4228   -1.0252   -1.9009 H       1  UNL1        0.2881
     35 H           5.9837   -1.8713   -2.2488 H       1  UNL1        0.2881
     36 H           8.2083    1.7493   -0.3329 H       1  UNL1        0.0316
     37 H           8.8858    0.6829    0.5086 H       1  UNL1        0.0316
     38 H           6.7731    0.9193    2.2344 H       1  UNL1        0.0316
     39 H           6.2393    2.1513    1.5293 H       1  UNL1        0.0316
     40 H           4.7345    0.0669    1.5642 H       1  UNL1        0.0726
     41 H           3.4019   -1.0480    1.4606 H       1  UNL1        0.0726
     42 H           3.5960    1.6482    0.1311 H       1  UNL1        0.0317
     43 H           2.5280    1.1992    1.4537 H       1  UNL1        0.0317
     44 H           2.3538    0.5730   -1.4060 H       1  UNL1        0.0466
     45 H           1.0949    0.9886   -0.2178 H       1  UNL1        0.0466
     46 H          -1.6128   -0.1132   -1.1122 H       1  UNL1        0.0629
     47 H          -2.9592    1.9594   -1.5846 H       1  UNL1        0.0377
     48 H          -4.0002    2.4938   -0.2336 H       1  UNL1        0.0377
     49 H          -4.9679   -1.3675   -3.5165 H       1  UNL1        0.1921
     50 H          -8.3905   -1.4804   -0.4604 H       1  UNL1        0.0625
     51 H          -8.8325   -0.2536    1.5612 H       1  UNL1        0.0618
     52 H          -7.2830    1.4110    2.3401 H       1  UNL1        0.0618
     53 H          -5.2569    1.8762    1.0975 H       1  UNL1        0.0624
     54 H          -3.1215    2.2553    1.9506 H       1  UNL1        0.0621
     55 H          -1.4592    1.3546    3.4160 H       1  UNL1        0.0646
     56 H           1.9361   -2.6561   -1.4459 H       1  UNL1        0.0502
     57 H           2.6333   -2.6859    0.1837 H       1  UNL1        0.0502
     58 H           4.3546   -2.5339   -1.4496 H       1  UNL1        0.0742
     59 H           3.5995   -1.0872   -2.1128 H       1  UNL1        0.0742
@<TRIPOS>BOND
     1     1     2    1
     2     2     3    2
     3     2     6    1
     4     3     4    1
     5     3     5    1
     6     4     5    1
     7     6     7    1
     8     6    33    1
     9     7     8    1
    10     8     9    1
    11     9    10    1
    12    10    11   am
    13    10    32    1
    14    11    12    2
    15    11    13    1
    16    13    14   ar
    17    13    30   ar
    18    14    15   ar
    19    15    16    1
    20    15    28   ar
    21    16    17    1
    22    17    18   ar
    23    17    27   ar
    24    18    19   ar
    25    19    20   ar
    26    20    21    2
    27    20    22   ar
    28    22    23   ar
    29    22    27   ar
    30    23    24   ar
    31    24    25   ar
    32    25    26   ar
    33    26    27   ar
    34    28    29   ar
    35    29    30   ar
    36    30    31    1
    37    32    33    1
    38     1    34    1
    39     1    35    1
    40     4    36    1
    41     4    37    1
    42     5    38    1
    43     5    39    1
    44     7    40    1
    45     7    41    1
    46     8    42    1
    47     8    43    1
    48     9    44    1
    49     9    45    1
    50    14    46    1
    51    16    47    1
    52    16    48    1
    53    19    49    1
    54    23    50    1
    55    24    51    1
    56    25    52    1
    57    26    53    1
    58    28    54    1
    59    29    55    1
    60    32    56    1
    61    32    57    1
    62    33    58    1
    63    33    59    1
@<TRIPOS>MOLECULE
../data/bude_mols_rdkit_confs2/molecule_92.pdb
 59 63 0 0 0
SMALL
GASTEIGER

@<TRIPOS>ATOM
      1  N1         5.3470    2.5910    0.3260 N.pl3   1  UNL1       -0.2515
      2  C1         5.5680    1.1910    0.2930 C.2     1  UNL1        0.2546
      3  C2         6.7690    0.6920    0.1380 C.2     1  UNL1        0.0151
      4  C3         8.2390    0.8880   -0.0500 C.3     1  UNL1       -0.0202
      5  C4         7.7160   -0.4810    0.0120 C.3     1  UNL1       -0.0202
      6  N2         4.4540    0.2960    0.4320 N.pl3   1  UNL1       -0.2241
      7  C5         4.1850   -0.4970   -0.7600 C.3     1  UNL1        0.0818
      8  C6         2.8210   -1.1010   -0.7680 C.3     1  UNL1       -0.0009
      9  C7         1.7490   -0.0170   -0.7040 C.3     1  UNL1        0.0185
     10  N3         1.5210    0.2530    0.6940 N.am    1  UNL1       -0.2937
     11  C8         0.2740   -0.1960    1.1900 C.2     1  UNL1        0.2495
     12  O1        -0.0530   -0.0200    2.3960 O.2     1  UNL1       -0.2699
     13  C9        -0.6820   -0.8800    0.3200 C.ar    1  UNL1        0.0723
     14  C10       -1.6480   -0.1740   -0.4110 C.ar    1  UNL1       -0.0433
     15  C11       -2.5430   -0.8100   -1.2300 C.ar    1  UNL1       -0.0406
     16  C12       -3.5630   -0.0600   -1.9840 C.3     1  UNL1        0.0171
     17  C13       -4.9420   -0.2380   -1.5500 C.ar    1  UNL1        0.0736
     18  N4        -5.7010   -1.1540   -2.2160 N.ar    1  UNL1       -0.1750
     19  N5        -6.9300   -1.4540   -1.9270 N.ar    1  UNL1       -0.2425
     20  C14       -7.5250   -0.8360   -0.9030 C.ar    1  UNL1        0.2725
     21  O2        -8.7170   -1.0800   -0.5670 O.2     1  UNL1       -0.2658
     22  C15       -6.8120    0.1200   -0.1680 C.ar    1  UNL1        0.0496
     23  C16       -7.4390    0.7680    0.8880 C.ar    1  UNL1       -0.0487
     24  C17       -6.7520    1.7190    1.6110 C.ar    1  UNL1       -0.0610
     25  C18       -5.4330    2.0120    1.2640 C.ar    1  UNL1       -0.0611
     26  C19       -4.8150    1.3760    0.2260 C.ar    1  UNL1       -0.0521
     27  C20       -5.5030    0.4220   -0.4980 C.ar    1  UNL1        0.0106
     28  C21       -2.4480   -2.1920   -1.3040 C.ar    1  UNL1       -0.0555
     29  C22       -1.5140   -2.9120   -0.6030 C.ar    1  UNL1       -0.0254
     30  C23       -0.6170   -2.2550    0.2210 C.ar    1  UNL1        0.1355
     31  F1         0.2950   -2.9860    0.9040 F       1  UNL1       -0.2047
     32  C24        2.3870    0.9080    1.6260 C.3     1  UNL1        0.0510
     33  C25        3.7690    0.2990    1.6960 C.3     1  UNL1        0.0960
     34 H           6.1055    3.2114    0.2314 H       1  UNL1        0.2881
     35 H           4.4350    2.9427    0.4435 H       1  UNL1        0.2881
     36 H           8.8317    1.2672    0.7562 H       1  UNL1        0.0316
     37 H           8.8381    1.4292   -0.7523 H       1  UNL1        0.0316
     38 H           7.7009   -1.0878   -0.8692 H       1  UNL1        0.0316
     39 H           7.9307   -1.3456    0.6047 H       1  UNL1        0.0316
     40 H           4.9064   -1.2854   -0.8140 H       1  UNL1        0.0726
     41 H           4.2462    0.1618   -1.6009 H       1  UNL1        0.0726
     42 H           2.7181   -1.7467    0.0790 H       1  UNL1        0.0317
     43 H           2.6959   -1.6545   -1.6752 H       1  UNL1        0.0317
     44 H           0.8472   -0.3615   -1.1656 H       1  UNL1        0.0466
     45 H           2.0606    0.8657   -1.2223 H       1  UNL1        0.0466
     46 H          -1.6858    0.8541   -0.3297 H       1  UNL1        0.0629
     47 H          -3.5011   -0.3635   -3.0082 H       1  UNL1        0.0377
     48 H          -3.3409    0.9733   -1.8174 H       1  UNL1        0.0377
     49 H          -7.4169   -2.1274   -2.4549 H       1  UNL1        0.1921
     50 H          -8.4155    0.5384    1.1304 H       1  UNL1        0.0625
     51 H          -7.2069    2.2075    2.3980 H       1  UNL1        0.0618
     52 H          -4.9143    2.7234    1.8024 H       1  UNL1        0.0618
     53 H          -3.8388    1.6069   -0.0164 H       1  UNL1        0.0624
     54 H          -3.1084   -2.7004   -1.9126 H       1  UNL1        0.0621
     55 H          -1.4804   -3.9398   -0.6898 H       1  UNL1        0.0646
     56 H           1.9428    0.8523    2.5978 H       1  UNL1        0.0502
     57 H           2.5045    1.9173    1.2906 H       1  UNL1        0.0502
     58 H           4.3519    0.8593    2.3968 H       1  UNL1        0.0742
     59 H           3.6507   -0.7216    1.9947 H       1  UNL1        0.0742
@<TRIPOS>BOND
     1     1     2    1
     2     2     3    2
     3     2     6    1
     4     3     4    1
     5     3     5    1
     6     4     5    1
     7     6     7    1
     8     6    33    1
     9     7     8    1
    10     8     9    1
    11     9    10    1
    12    10    11   am
    13    10    32    1
    14    11    12    2
    15    11    13    1
    16    13    14   ar
    17    13    30   ar
    18    14    15   ar
    19    15    16    1
    20    15    28   ar
    21    16    17    1
    22    17    18   ar
    23    17    27   ar
    24    18    19   ar
    25    19    20   ar
    26    20    21    2
    27    20    22   ar
    28    22    23   ar
    29    22    27   ar
    30    23    24   ar
    31    24    25   ar
    32    25    26   ar
    33    26    27   ar
    34    28    29   ar
    35    29    30   ar
    36    30    31    1
    37    32    33    1
    38     1    34    1
    39     1    35    1
    40     4    36    1
    41     4    37    1
    42     5    38    1
    43     5    39    1
    44     7    40    1
    45     7    41    1
    46     8    42    1
    47     8    43    1
    48     9    44    1
    49     9    45    1
    50    14    46    1
    51    16    47    1
    52    16    48    1
    53    19    49    1
    54    23    50    1
    55    24    51    1
    56    25    52    1
    57    26    53    1
    58    28    54    1
    59    29    55    1
    60    32    56    1
    61    32    57    1
    62    33    58    1
    63    33    59    1
@<TRIPOS>MOLECULE
../data/bude_mols_rdkit_confs2/molecule_92.pdb
 59 63 0 0 0
SMALL
GASTEIGER

@<TRIPOS>ATOM
      1  N1        -6.2000   -1.0300    1.2380 N.pl3   1  UNL1       -0.2515
      2  C1        -5.7200    0.0190    0.3940 C.2     1  UNL1        0.2546
      3  C2        -6.4970    0.6560   -0.4530 C.2     1  UNL1        0.0151
      4  C3        -6.8250    1.6580   -1.5040 C.3     1  UNL1       -0.0202
      5  C4        -7.8770    0.8010   -1.0200 C.3     1  UNL1       -0.0202
      6  N2        -4.3450    0.3670    0.4930 N.pl3   1  UNL1       -0.2241
      7  C5        -3.4340   -0.5890    1.0940 C.3     1  UNL1        0.0818
      8  C6        -2.6950   -1.3750    0.0340 C.3     1  UNL1       -0.0009
      9  C7        -1.8580   -0.4320   -0.7680 C.3     1  UNL1        0.0185
     10  N3        -1.6430    0.7710   -0.0000 N.am    1  UNL1       -0.2937
     11  C8        -0.4300    0.8130    0.7310 C.2     1  UNL1        0.2495
     12  O1        -0.2060    1.8530    1.4190 O.2     1  UNL1       -0.2699
     13  C9         0.5540   -0.2630    0.7280 C.ar    1  UNL1        0.0723
     14  C10        1.5990   -0.3320   -0.2030 C.ar    1  UNL1       -0.0433
     15  C11        2.5240   -1.3420   -0.2040 C.ar    1  UNL1       -0.0406
     16  C12        3.6200   -1.3890   -1.1800 C.3     1  UNL1        0.0171
     17  C13        4.9740   -1.2070   -0.6000 C.ar    1  UNL1        0.0736
     18  N4         5.7270   -2.2740   -0.2740 N.ar    1  UNL1       -0.1750
     19  N5         6.8950   -2.1140    0.2810 N.ar    1  UNL1       -0.2425
     20  C14        7.4210   -0.9200    0.5610 C.ar    1  UNL1        0.2725
     21  O2         8.5450   -0.7530    1.0960 O.2     1  UNL1       -0.2658
     22  C15        6.6930    0.2060    0.2460 C.ar    1  UNL1        0.0496
     23  C16        7.1980    1.4440    0.5010 C.ar    1  UNL1       -0.0487
     24  C17        6.4730    2.5780    0.1700 C.ar    1  UNL1       -0.0610
     25  C18        5.2270    2.4780   -0.4240 C.ar    1  UNL1       -0.0611
     26  C19        4.7520    1.2090   -0.6650 C.ar    1  UNL1       -0.0521
     27  C20        5.4480    0.0470   -0.3460 C.ar    1  UNL1        0.0106
     28  C21        2.4530   -2.3660    0.7490 C.ar    1  UNL1       -0.0555
     29  C22        1.4400   -2.3060    1.6570 C.ar    1  UNL1       -0.0254
     30  C23        0.5000   -1.2770    1.6580 C.ar    1  UNL1        0.1355
     31  F1        -0.4590   -1.3270    2.6090 F       1  UNL1       -0.2047
     32  C24       -2.4820    1.9180    0.1120 C.3     1  UNL1        0.0510
     33  C25       -3.9380    1.6590   -0.0140 C.3     1  UNL1        0.0960
     34 H          -7.1460   -1.2996    1.1985 H       1  UNL1        0.2881
     35 H          -5.5846   -1.4829    1.8588 H       1  UNL1        0.2881
     36 H          -6.4490    1.5279   -2.4973 H       1  UNL1        0.0316
     37 H          -6.7041    2.7176   -1.5907 H       1  UNL1        0.0316
     38 H          -8.6609    1.2085   -0.4164 H       1  UNL1        0.0316
     39 H          -8.5746    0.1332   -1.4807 H       1  UNL1        0.0316
     40 H          -3.9918   -1.2663    1.7064 H       1  UNL1        0.0726
     41 H          -2.7181   -0.0538    1.6822 H       1  UNL1        0.0726
     42 H          -3.3984   -1.8652   -0.6062 H       1  UNL1        0.0317
     43 H          -2.0717   -2.1119    0.4959 H       1  UNL1        0.0317
     44 H          -2.3627   -0.1905   -1.6801 H       1  UNL1        0.0466
     45 H          -0.9178   -0.8879   -0.9985 H       1  UNL1        0.0466
     46 H           1.6747    0.4089   -0.9174 H       1  UNL1        0.0629
     47 H           3.4588   -0.6141   -1.9000 H       1  UNL1        0.0377
     48 H           3.6031   -2.3700   -1.6070 H       1  UNL1        0.0377
     49 H           7.4177   -2.9174    0.5059 H       1  UNL1        0.1921
     50 H           8.1257    1.5388    0.9432 H       1  UNL1        0.0625
     51 H           6.8680    3.5103    0.3694 H       1  UNL1        0.0618
     52 H           4.6795    3.3161   -0.6746 H       1  UNL1        0.0618
     53 H           3.8250    1.1136   -1.1084 H       1  UNL1        0.0624
     54 H           3.1409   -3.1352    0.7625 H       1  UNL1        0.0621
     55 H           1.3657   -3.0487    2.3696 H       1  UNL1        0.0646
     56 H          -2.2020    2.6076   -0.6567 H       1  UNL1        0.0502
     57 H          -2.3350    2.2940    1.1029 H       1  UNL1        0.0502
     58 H          -4.4640    2.4160    0.5293 H       1  UNL1        0.0742
     59 H          -4.1684    1.6715   -1.0588 H       1  UNL1        0.0742
@<TRIPOS>BOND
     1     1     2    1
     2     2     3    2
     3     2     6    1
     4     3     4    1
     5     3     5    1
     6     4     5    1
     7     6     7    1
     8     6    33    1
     9     7     8    1
    10     8     9    1
    11     9    10    1
    12    10    11   am
    13    10    32    1
    14    11    12    2
    15    11    13    1
    16    13    14   ar
    17    13    30   ar
    18    14    15   ar
    19    15    16    1
    20    15    28   ar
    21    16    17    1
    22    17    18   ar
    23    17    27   ar
    24    18    19   ar
    25    19    20   ar
    26    20    21    2
    27    20    22   ar
    28    22    23   ar
    29    22    27   ar
    30    23    24   ar
    31    24    25   ar
    32    25    26   ar
    33    26    27   ar
    34    28    29   ar
    35    29    30   ar
    36    30    31    1
    37    32    33    1
    38     1    34    1
    39     1    35    1
    40     4    36    1
    41     4    37    1
    42     5    38    1
    43     5    39    1
    44     7    40    1
    45     7    41    1
    46     8    42    1
    47     8    43    1
    48     9    44    1
    49     9    45    1
    50    14    46    1
    51    16    47    1
    52    16    48    1
    53    19    49    1
    54    23    50    1
    55    24    51    1
    56    25    52    1
    57    26    53    1
    58    28    54    1
    59    29    55    1
    60    32    56    1
    61    32    57    1
    62    33    58    1
    63    33    59    1
@<TRIPOS>MOLECULE
../data/bude_mols_rdkit_confs2/molecule_92.pdb
 59 63 0 0 0
SMALL
GASTEIGER

@<TRIPOS>ATOM
      1  N1        -6.6440   -1.2860   -0.9020 N.pl3   1  UNL1       -0.2515
      2  C1        -5.9870   -0.5660    0.1480 C.2     1  UNL1        0.2546
      3  C2        -6.7470   -0.1250    1.1460 C.2     1  UNL1        0.0151
      4  C3        -6.7930    0.6160    2.4460 C.3     1  UNL1       -0.0202
      5  C4        -8.0590    0.0340    1.8130 C.3     1  UNL1       -0.0202
      6  N2        -4.5950   -0.3230    0.1340 N.pl3   1  UNL1       -0.2241
      7  C5        -4.1680    0.6640   -0.8390 C.3     1  UNL1        0.0818
      8  C6        -2.7240    1.0670   -0.6020 C.3     1  UNL1       -0.0009
      9  C7        -1.7590    0.0350   -1.0750 C.3     1  UNL1        0.0185
     10  N3        -1.7170   -1.1820   -0.3210 N.am    1  UNL1       -0.2937
     11  C8        -0.4150   -1.7300   -0.1580 C.2     1  UNL1        0.2495
     12  O1        -0.2210   -2.7910    0.4820 O.2     1  UNL1       -0.2699
     13  C9         0.7070   -1.0130   -0.7700 C.ar    1  UNL1        0.0723
     14  C10        1.4210   -0.0520   -0.1060 C.ar    1  UNL1       -0.0433
     15  C11        2.4890    0.6390   -0.7170 C.ar    1  UNL1       -0.0406
     16  C12        3.1940    1.6610    0.1000 C.3     1  UNL1        0.0171
     17  C13        4.3450    1.0700    0.7730 C.ar    1  UNL1        0.0736
     18  N4         4.1220    0.4980    1.9910 N.ar    1  UNL1       -0.1750
     19  N5         5.0690   -0.1360    2.6430 N.ar    1  UNL1       -0.2425
     20  C14        6.3230   -0.2920    2.2080 C.ar    1  UNL1        0.2725
     21  O2         7.2250   -0.8900    2.8150 O.2     1  UNL1       -0.2658
     22  C15        6.6220    0.2700    0.9700 C.ar    1  UNL1        0.0496
     23  C16        7.8910    0.1830    0.4450 C.ar    1  UNL1       -0.0487
     24  C17        8.1760    0.7730   -0.7840 C.ar    1  UNL1       -0.0610
     25  C18        7.1850    1.4410   -1.4680 C.ar    1  UNL1       -0.0611
     26  C19        5.9120    1.5220   -0.9310 C.ar    1  UNL1       -0.0521
     27  C20        5.6240    0.9460    0.2690 C.ar    1  UNL1        0.0106
     28  C21        2.8200    0.3400   -2.0060 C.ar    1  UNL1       -0.0555
     29  C22        2.1090   -0.6450   -2.7250 C.ar    1  UNL1       -0.0254
     30  C23        1.0780   -1.2910   -2.0910 C.ar    1  UNL1        0.1355
     31  F1         0.3460   -2.2550   -2.7180 F       1  UNL1       -0.2047
     32  C24       -2.8170   -1.9100    0.2670 C.3     1  UNL1        0.0510
     33  C25       -3.7410   -1.0300    1.0360 C.3     1  UNL1        0.0960
     34 H          -7.6159   -1.4380   -0.8613 H       1  UNL1        0.2881
     35 H          -6.1236   -1.6288   -1.6642 H       1  UNL1        0.2881
     36 H          -6.6395    1.6747    2.4686 H       1  UNL1        0.0316
     37 H          -6.3025    0.5302    3.3931 H       1  UNL1        0.0316
     38 H          -8.5404   -0.8119    2.2575 H       1  UNL1        0.0316
     39 H          -9.0132    0.4249    1.5272 H       1  UNL1        0.0316
     40 H          -4.7915    1.5297   -0.7570 H       1  UNL1        0.0726
     41 H          -4.2483    0.2376   -1.8171 H       1  UNL1        0.0726
     42 H          -2.5777    1.2185    0.4471 H       1  UNL1        0.0317
     43 H          -2.5408    1.9627   -1.1579 H       1  UNL1        0.0317
     44 H          -0.7806    0.4676   -1.0520 H       1  UNL1        0.0466
     45 H          -2.0933   -0.2442   -2.0523 H       1  UNL1        0.0466
     46 H           1.1710    0.1736    0.8695 H       1  UNL1        0.0629
     47 H           2.5199    2.0524    0.8330 H       1  UNL1        0.0377
     48 H           3.5339    2.4452   -0.5437 H       1  UNL1        0.0377
     49 H           4.8382   -0.5254    3.5173 H       1  UNL1        0.1921
     50 H           8.6305   -0.3187    0.9612 H       1  UNL1        0.0625
     51 H           9.1266    0.7098   -1.1807 H       1  UNL1        0.0618
     52 H           7.3910    1.8802   -2.3789 H       1  UNL1        0.0618
     53 H           5.1723    2.0248   -1.4459 H       1  UNL1        0.0624
     54 H           3.5997    0.8399   -2.4611 H       1  UNL1        0.0621
     55 H           2.3578   -0.8728   -3.7003 H       1  UNL1        0.0646
     56 H          -2.4219   -2.6528    0.9280 H       1  UNL1        0.0502
     57 H          -3.3778   -2.3498   -0.5311 H       1  UNL1        0.0502
     58 H          -4.3360   -1.6279    1.6943 H       1  UNL1        0.0742
     59 H          -3.1692   -0.3281    1.6063 H       1  UNL1        0.0742
@<TRIPOS>BOND
     1     1     2    1
     2     2     3    2
     3     2     6    1
     4     3     4    1
     5     3     5    1
     6     4     5    1
     7     6     7    1
     8     6    33    1
     9     7     8    1
    10     8     9    1
    11     9    10    1
    12    10    11   am
    13    10    32    1
    14    11    12    2
    15    11    13    1
    16    13    14   ar
    17    13    30   ar
    18    14    15   ar
    19    15    16    1
    20    15    28   ar
    21    16    17    1
    22    17    18   ar
    23    17    27   ar
    24    18    19   ar
    25    19    20   ar
    26    20    21    2
    27    20    22   ar
    28    22    23   ar
    29    22    27   ar
    30    23    24   ar
    31    24    25   ar
    32    25    26   ar
    33    26    27   ar
    34    28    29   ar
    35    29    30   ar
    36    30    31    1
    37    32    33    1
    38     1    34    1
    39     1    35    1
    40     4    36    1
    41     4    37    1
    42     5    38    1
    43     5    39    1
    44     7    40    1
    45     7    41    1
    46     8    42    1
    47     8    43    1
    48     9    44    1
    49     9    45    1
    50    14    46    1
    51    16    47    1
    52    16    48    1
    53    19    49    1
    54    23    50    1
    55    24    51    1
    56    25    52    1
    57    26    53    1
    58    28    54    1
    59    29    55    1
    60    32    56    1
    61    32    57    1
    62    33    58    1
    63    33    59    1
@<TRIPOS>MOLECULE
../data/bude_mols_rdkit_confs2/molecule_92.pdb
 59 63 0 0 0
SMALL
GASTEIGER

@<TRIPOS>ATOM
      1  N1        -5.6400   -2.1070   -1.4050 N.pl3   1  UNL1       -0.2515
      2  C1        -5.0590   -1.1140   -0.5720 C.2     1  UNL1        0.2546
      3  C2        -5.7590   -0.0920   -0.0850 C.2     1  UNL1        0.0151
      4  C3        -7.1440    0.5560   -0.0470 C.3     1  UNL1       -0.0202
      5  C4        -5.9930    1.1390    0.6750 C.3     1  UNL1       -0.0202
      6  N2        -3.6650   -1.2300   -0.2560 N.pl3   1  UNL1       -0.2241
      7  C5        -2.8110   -0.6670   -1.2490 C.3     1  UNL1        0.0818
      8  C6        -1.5150   -1.4210   -1.4500 C.3     1  UNL1       -0.0009
      9  C7        -0.5300   -1.0110   -0.3940 C.3     1  UNL1        0.0185
     10  N3        -1.1170   -1.2200    0.9350 N.am    1  UNL1       -0.2937
     11  C8        -0.7410   -0.2920    1.9370 C.2     1  UNL1        0.2495
     12  O1        -1.2220   -0.4400    3.0870 O.2     1  UNL1       -0.2699
     13  C9         0.1630    0.8080    1.6970 C.ar    1  UNL1        0.0723
     14  C10        1.5500    0.6740    1.8620 C.ar    1  UNL1       -0.0433
     15  C11        2.4250    1.6930    1.6370 C.ar    1  UNL1       -0.0406
     16  C12        3.8730    1.4960    1.8090 C.3     1  UNL1        0.0171
     17  C13        4.6770    1.5390    0.5950 C.ar    1  UNL1        0.0736
     18  N4         5.2850    2.7020    0.1870 N.ar    1  UNL1       -0.1750
     19  N5         5.9680    2.7700   -0.9340 N.ar    1  UNL1       -0.2425
     20  C14        6.1300    1.7330   -1.7620 C.ar    1  UNL1        0.2725
     21  O2         6.7830    1.7900   -2.8410 O.2     1  UNL1       -0.2658
     22  C15        5.5380    0.5200   -1.4060 C.ar    1  UNL1        0.0496
     23  C16        5.6880   -0.5850   -2.2140 C.ar    1  UNL1       -0.0487
     24  C17        5.1330   -1.8070   -1.8830 C.ar    1  UNL1       -0.0610
     25  C18        4.4200   -1.9040   -0.7210 C.ar    1  UNL1       -0.0611
     26  C19        4.2710   -0.7960    0.0840 C.ar    1  UNL1       -0.0521
     27  C20        4.8200    0.4550   -0.2230 C.ar    1  UNL1        0.0106
     28  C21        1.8890    2.9040    1.2280 C.ar    1  UNL1       -0.0555
     29  C22        0.5410    3.0490    1.0630 C.ar    1  UNL1       -0.0254
     30  C23       -0.3450    2.0170    1.2910 C.ar    1  UNL1        0.1355
     31  F1        -1.6930    2.2060    1.1130 F       1  UNL1       -0.2047
     32  C24       -2.0220   -2.2700    1.2770 C.3     1  UNL1        0.0510
     33  C25       -3.4490   -1.8970    1.0090 C.3     1  UNL1        0.0960
     34 H          -6.5946   -2.0553   -1.6401 H       1  UNL1        0.2881
     35 H          -5.0881   -2.8469   -1.7473 H       1  UNL1        0.2881
     36 H          -7.9419    0.0924    0.4945 H       1  UNL1        0.0316
     37 H          -7.8478    0.9031   -0.7744 H       1  UNL1        0.0316
     38 H          -5.5669    2.0592    0.3336 H       1  UNL1        0.0316
     39 H          -5.8239    1.4260    1.6918 H       1  UNL1        0.0316
     40 H          -2.5748    0.3357   -0.9595 H       1  UNL1        0.0726
     41 H          -3.3428   -0.7156   -2.1762 H       1  UNL1        0.0726
     42 H          -1.1166   -1.1945   -2.4169 H       1  UNL1        0.0317
     43 H          -1.6988   -2.4726   -1.3780 H       1  UNL1        0.0317
     44 H          -0.2863    0.0236   -0.5169 H       1  UNL1        0.0466
     45 H           0.3573   -1.6017   -0.4873 H       1  UNL1        0.0466
     46 H           1.9239   -0.2380    2.1677 H       1  UNL1        0.0629
     47 H           4.0204    0.5390    2.2643 H       1  UNL1        0.0377
     48 H           4.2058    2.3221    2.4020 H       1  UNL1        0.0377
     49 H           6.3820    3.6297   -1.1766 H       1  UNL1        0.1921
     50 H           6.2285   -0.4986   -3.0889 H       1  UNL1        0.0625
     51 H           5.2541   -2.6264   -2.4985 H       1  UNL1        0.0618
     52 H           3.9949   -2.8038   -0.4477 H       1  UNL1        0.0618
     53 H           3.7280   -0.8928    0.9563 H       1  UNL1        0.0624
     54 H           2.5148    3.7042    1.0463 H       1  UNL1        0.0621
     55 H           0.1724    3.9631    0.7569 H       1  UNL1        0.0646
     56 H          -1.9137   -2.4929    2.3179 H       1  UNL1        0.0502
     57 H          -1.7848   -3.1189    0.6704 H       1  UNL1        0.0502
     58 H          -4.0364   -2.7913    1.0203 H       1  UNL1        0.0742
     59 H          -3.7315   -1.2025    1.7724 H       1  UNL1        0.0742
@<TRIPOS>BOND
     1     1     2    1
     2     2     3    2
     3     2     6    1
     4     3     4    1
     5     3     5    1
     6     4     5    1
     7     6     7    1
     8     6    33    1
     9     7     8    1
    10     8     9    1
    11     9    10    1
    12    10    11   am
    13    10    32    1
    14    11    12    2
    15    11    13    1
    16    13    14   ar
    17    13    30   ar
    18    14    15   ar
    19    15    16    1
    20    15    28   ar
    21    16    17    1
    22    17    18   ar
    23    17    27   ar
    24    18    19   ar
    25    19    20   ar
    26    20    21    2
    27    20    22   ar
    28    22    23   ar
    29    22    27   ar
    30    23    24   ar
    31    24    25   ar
    32    25    26   ar
    33    26    27   ar
    34    28    29   ar
    35    29    30   ar
    36    30    31    1
    37    32    33    1
    38     1    34    1
    39     1    35    1
    40     4    36    1
    41     4    37    1
    42     5    38    1
    43     5    39    1
    44     7    40    1
    45     7    41    1
    46     8    42    1
    47     8    43    1
    48     9    44    1
    49     9    45    1
    50    14    46    1
    51    16    47    1
    52    16    48    1
    53    19    49    1
    54    23    50    1
    55    24    51    1
    56    25    52    1
    57    26    53    1
    58    28    54    1
    59    29    55    1
    60    32    56    1
    61    32    57    1
    62    33    58    1
    63    33    59    1
@<TRIPOS>MOLECULE
../data/bude_mols_rdkit_confs2/molecule_92.pdb
 59 63 0 0 0
SMALL
GASTEIGER

@<TRIPOS>ATOM
      1  N1        -6.3340    0.4630    0.7010 N.pl3   1  UNL1       -0.2515
      2  C1        -5.2050   -0.3330    0.3800 C.2     1  UNL1        0.2546
      3  C2        -5.2760   -1.6540    0.4010 C.2     1  UNL1        0.0151
      4  C3        -4.7110   -3.0220    0.2400 C.3     1  UNL1       -0.0202
      5  C4        -6.0940   -2.9250    0.6340 C.3     1  UNL1       -0.0202
      6  N2        -3.9580    0.2480    0.0250 N.pl3   1  UNL1       -0.2241
      7  C5        -3.9840    1.4990   -0.7080 C.3     1  UNL1        0.0818
      8  C6        -3.9140    2.6110    0.3130 C.3     1  UNL1       -0.0009
      9  C7        -2.7470    2.3530    1.2210 C.3     1  UNL1        0.0185
     10  N3        -1.6920    1.6840    0.4870 N.am    1  UNL1       -0.2937
     11  C8        -0.7660    2.5610   -0.1290 C.2     1  UNL1        0.2495
     12  O1        -0.8970    3.8040   -0.0150 O.2     1  UNL1       -0.2699
     13  C9         0.3690    2.0980   -0.9150 C.ar    1  UNL1        0.0723
     14  C10        1.6130    1.8380   -0.3700 C.ar    1  UNL1       -0.0433
     15  C11        2.6760    1.3980   -1.1350 C.ar    1  UNL1       -0.0406
     16  C12        4.0210    1.1100   -0.5760 C.3     1  UNL1        0.0171
     17  C13        4.0640   -0.3310   -0.1800 C.ar    1  UNL1        0.0736
     18  N4         3.0040   -1.1240   -0.3500 N.ar    1  UNL1       -0.1750
     19  N5         3.0540   -2.3880    0.0030 N.ar    1  UNL1       -0.2425
     20  C14        4.1370   -2.9610    0.5420 C.ar    1  UNL1        0.2725
     21  O2         4.1590   -4.1790    0.8720 O.2     1  UNL1       -0.2658
     22  C15        5.2590   -2.2040    0.7430 C.ar    1  UNL1        0.0496
     23  C16        6.3860   -2.7730    1.2970 C.ar    1  UNL1       -0.0487
     24  C17        7.5120   -2.0040    1.4980 C.ar    1  UNL1       -0.0610
     25  C18        7.4870   -0.6800    1.1390 C.ar    1  UNL1       -0.0611
     26  C19        6.3490   -0.1180    0.5820 C.ar    1  UNL1       -0.0521
     27  C20        5.2060   -0.8650    0.3700 C.ar    1  UNL1        0.0106
     28  C21        2.4920    1.2130   -2.4890 C.ar    1  UNL1       -0.0555
     29  C22        1.2420    1.4700   -3.0620 C.ar    1  UNL1       -0.0254
     30  C23        0.1800    1.9140   -2.2660 C.ar    1  UNL1        0.1355
     31  F1        -0.9910    2.1370   -2.9070 F       1  UNL1       -0.2047
     32  C24       -1.5250    0.2680    0.3450 C.3     1  UNL1        0.0510
     33  C25       -2.8160   -0.5000    0.4500 C.3     1  UNL1        0.0960
     34 H          -7.1861    0.0336    0.9436 H       1  UNL1        0.2881
     35 H          -6.2657    1.4449    0.6813 H       1  UNL1        0.2881
     36 H          -3.9868   -3.3791    0.9421 H       1  UNL1        0.0316
     37 H          -4.2024   -3.5231   -0.5570 H       1  UNL1        0.0316
     38 H          -6.8666   -3.1975   -0.0543 H       1  UNL1        0.0316
     39 H          -6.6786   -3.3103    1.4431 H       1  UNL1        0.0316
     40 H          -4.8896    1.5752   -1.2728 H       1  UNL1        0.0726
     41 H          -3.1640    1.5573   -1.3929 H       1  UNL1        0.0726
     42 H          -4.8181    2.6330    0.8849 H       1  UNL1        0.0317
     43 H          -3.7932    3.5532   -0.1796 H       1  UNL1        0.0317
     44 H          -3.0607    1.7339    2.0354 H       1  UNL1        0.0466
     45 H          -2.3794    3.2849    1.5970 H       1  UNL1        0.0466
     46 H           1.7522    1.9774    0.6430 H       1  UNL1        0.0629
     47 H           4.1967    1.7264    0.2808 H       1  UNL1        0.0377
     48 H           4.7761    1.3152   -1.3058 H       1  UNL1        0.0377
     49 H           2.2530   -2.9432   -0.1361 H       1  UNL1        0.1921
     50 H           6.3865   -3.7709    1.5602 H       1  UNL1        0.0625
     51 H           8.3616   -2.4181    1.9125 H       1  UNL1        0.0618
     52 H           8.3251   -0.0959    1.2854 H       1  UNL1        0.0618
     53 H           6.3555    0.8801    0.3199 H       1  UNL1        0.0624
     54 H           3.2740    0.8860   -3.0778 H       1  UNL1        0.0621
     55 H           1.1025    1.3317   -4.0751 H       1  UNL1        0.0646
     56 H          -0.8634   -0.0742    1.1131 H       1  UNL1        0.0502
     57 H          -1.1322    0.0930   -0.6348 H       1  UNL1        0.0502
     58 H          -2.7394   -1.3769   -0.1583 H       1  UNL1        0.0742
     59 H          -2.9599   -0.7360    1.4837 H       1  UNL1        0.0742
@<TRIPOS>BOND
     1     1     2    1
     2     2     3    2
     3     2     6    1
     4     3     4    1
     5     3     5    1
     6     4     5    1
     7     6     7    1
     8     6    33    1
     9     7     8    1
    10     8     9    1
    11     9    10    1
    12    10    11   am
    13    10    32    1
    14    11    12    2
    15    11    13    1
    16    13    14   ar
    17    13    30   ar
    18    14    15   ar
    19    15    16    1
    20    15    28   ar
    21    16    17    1
    22    17    18   ar
    23    17    27   ar
    24    18    19   ar
    25    19    20   ar
    26    20    21    2
    27    20    22   ar
    28    22    23   ar
    29    22    27   ar
    30    23    24   ar
    31    24    25   ar
    32    25    26   ar
    33    26    27   ar
    34    28    29   ar
    35    29    30   ar
    36    30    31    1
    37    32    33    1
    38     1    34    1
    39     1    35    1
    40     4    36    1
    41     4    37    1
    42     5    38    1
    43     5    39    1
    44     7    40    1
    45     7    41    1
    46     8    42    1
    47     8    43    1
    48     9    44    1
    49     9    45    1
    50    14    46    1
    51    16    47    1
    52    16    48    1
    53    19    49    1
    54    23    50    1
    55    24    51    1
    56    25    52    1
    57    26    53    1
    58    28    54    1
    59    29    55    1
    60    32    56    1
    61    32    57    1
    62    33    58    1
    63    33    59    1
@<TRIPOS>MOLECULE
../data/bude_mols_rdkit_confs2/molecule_92.pdb
 59 63 0 0 0
SMALL
GASTEIGER

@<TRIPOS>ATOM
      1  N1         4.3080   -1.9380   -1.8340 N.pl3   1  UNL1       -0.2515
      2  C1         3.8980   -0.5950   -1.6070 C.2     1  UNL1        0.2546
      3  C2         3.8620    0.2280   -2.6360 C.2     1  UNL1        0.0151
      4  C3         3.5750    1.6210   -3.1540 C.3     1  UNL1       -0.0202
      5  C4         4.0280    0.5890   -4.0560 C.3     1  UNL1       -0.0202
      6  N2         3.5330   -0.1260   -0.3210 N.pl3   1  UNL1       -0.2241
      7  C5         4.3160    0.9450    0.2310 C.3     1  UNL1        0.0818
      8  C6         3.5150    2.0760    0.8060 C.3     1  UNL1       -0.0009
      9  C7         2.8940    1.7160    2.1360 C.3     1  UNL1        0.0185
     10  N3         1.7630    0.8420    1.8720 N.am    1  UNL1       -0.2937
     11  C8         0.9380    0.5580    2.9860 C.2     1  UNL1        0.2495
     12  O1         1.1800    1.0370    4.1330 O.2     1  UNL1       -0.2699
     13  C9        -0.2210   -0.3120    2.7910 C.ar    1  UNL1        0.0723
     14  C10       -1.4510    0.2030    2.4510 C.ar    1  UNL1       -0.0433
     15  C11       -2.5870   -0.6010    2.2570 C.ar    1  UNL1       -0.0406
     16  C12       -3.8890    0.0070    1.9200 C.3     1  UNL1        0.0171
     17  C13       -3.9950    0.5370    0.5540 C.ar    1  UNL1        0.0736
     18  N4        -3.7650    1.8670    0.3230 N.ar    1  UNL1       -0.1750
     19  N5        -3.8000    2.4060   -0.8750 N.ar    1  UNL1       -0.2425
     20  C14       -4.0650    1.6940   -1.9760 C.ar    1  UNL1        0.2725
     21  O2        -4.1020    2.1930   -3.1310 O.2     1  UNL1       -0.2658
     22  C15       -4.3130    0.3380   -1.8470 C.ar    1  UNL1        0.0496
     23  C16       -4.6000   -0.4190   -2.9580 C.ar    1  UNL1       -0.0487
     24  C17       -4.8550   -1.7530   -2.8140 C.ar    1  UNL1       -0.0610
     25  C18       -4.8200   -2.3090   -1.5580 C.ar    1  UNL1       -0.0611
     26  C19       -4.5340   -1.5610   -0.4440 C.ar    1  UNL1       -0.0521
     27  C20       -4.2710   -0.2150   -0.5590 C.ar    1  UNL1        0.0106
     28  C21       -2.3870   -1.9430    2.4320 C.ar    1  UNL1       -0.0555
     29  C22       -1.1470   -2.4830    2.7770 C.ar    1  UNL1       -0.0254
     30  C23       -0.0540   -1.6690    2.9590 C.ar    1  UNL1        0.1355
     31  F1         1.1670   -2.1890    3.2980 F       1  UNL1       -0.2047
     32  C24        1.3630    0.2230    0.6370 C.3     1  UNL1        0.0510
     33  C25        2.4060   -0.8050    0.2690 C.3     1  UNL1        0.0960
     34 H           4.5550   -2.2307   -2.7410 H       1  UNL1        0.2881
     35 H           4.3448   -2.5749   -1.0841 H       1  UNL1        0.2881
     36 H           4.2246    2.4319   -2.8983 H       1  UNL1        0.0316
     37 H           2.7358    2.2840   -3.1210 H       1  UNL1        0.0316
     38 H           3.3531    0.1908   -4.7846 H       1  UNL1        0.0316
     39 H           4.8381    0.5140   -4.7510 H       1  UNL1        0.0316
     40 H           4.9375    1.3382   -0.5462 H       1  UNL1        0.0726
     41 H           4.8720    0.5252    1.0431 H       1  UNL1        0.0726
     42 H           2.7352    2.3304    0.1190 H       1  UNL1        0.0317
     43 H           4.1777    2.9009    0.9649 H       1  UNL1        0.0317
     44 H           2.5614    2.6022    2.6349 H       1  UNL1        0.0466
     45 H           3.6087    1.2258    2.7635 H       1  UNL1        0.0466
     46 H          -1.5431    1.2241    2.3334 H       1  UNL1        0.0629
     47 H          -4.0653    0.8121    2.6024 H       1  UNL1        0.0377
     48 H          -4.6119   -0.7787    1.9914 H       1  UNL1        0.0377
     49 H          -3.6245    3.3705   -0.9656 H       1  UNL1        0.1921
     50 H          -4.6226    0.0171   -3.8931 H       1  UNL1        0.0625
     51 H          -5.0712   -2.3358   -3.6378 H       1  UNL1        0.0618
     52 H          -5.0141   -3.3168   -1.4496 H       1  UNL1        0.0618
     53 H          -4.5160   -2.0100    0.4850 H       1  UNL1        0.0624
     54 H          -3.1864   -2.5829    2.3036 H       1  UNL1        0.0621
     55 H          -1.0496   -3.5034    2.8967 H       1  UNL1        0.0646
     56 H           1.2943    0.9621   -0.1337 H       1  UNL1        0.0502
     57 H           0.4061   -0.2427    0.7483 H       1  UNL1        0.0502
     58 H           2.7205   -1.3297    1.1469 H       1  UNL1        0.0742
     59 H           1.9973   -1.5076   -0.4269 H       1  UNL1        0.0742
@<TRIPOS>BOND
     1     1     2    1
     2     2     3    2
     3     2     6    1
     4     3     4    1
     5     3     5    1
     6     4     5    1
     7     6     7    1
     8     6    33    1
     9     7     8    1
    10     8     9    1
    11     9    10    1
    12    10    11   am
    13    10    32    1
    14    11    12    2
    15    11    13    1
    16    13    14   ar
    17    13    30   ar
    18    14    15   ar
    19    15    16    1
    20    15    28   ar
    21    16    17    1
    22    17    18   ar
    23    17    27   ar
    24    18    19   ar
    25    19    20   ar
    26    20    21    2
    27    20    22   ar
    28    22    23   ar
    29    22    27   ar
    30    23    24   ar
    31    24    25   ar
    32    25    26   ar
    33    26    27   ar
    34    28    29   ar
    35    29    30   ar
    36    30    31    1
    37    32    33    1
    38     1    34    1
    39     1    35    1
    40     4    36    1
    41     4    37    1
    42     5    38    1
    43     5    39    1
    44     7    40    1
    45     7    41    1
    46     8    42    1
    47     8    43    1
    48     9    44    1
    49     9    45    1
    50    14    46    1
    51    16    47    1
    52    16    48    1
    53    19    49    1
    54    23    50    1
    55    24    51    1
    56    25    52    1
    57    26    53    1
    58    28    54    1
    59    29    55    1
    60    32    56    1
    61    32    57    1
    62    33    58    1
    63    33    59    1
@<TRIPOS>MOLECULE
../data/bude_mols_rdkit_confs2/molecule_92.pdb
 59 63 0 0 0
SMALL
GASTEIGER

@<TRIPOS>ATOM
      1  N1         6.0860    0.4030    0.5110 N.pl3   1  UNL1       -0.2515
      2  C1         5.2150   -0.5560   -0.0960 C.2     1  UNL1        0.2546
      3  C2         5.4050   -1.8470    0.1070 C.2     1  UNL1        0.0151
      4  C3         6.2060   -2.9380    0.7590 C.3     1  UNL1       -0.0202
      5  C4         5.0710   -3.2820   -0.0740 C.3     1  UNL1       -0.0202
      6  N2         4.1490   -0.1520   -0.9180 N.pl3   1  UNL1       -0.2241
      7  C5         4.4080    0.5230   -2.1740 C.3     1  UNL1        0.0818
      8  C6         3.9520    1.9590   -2.0850 C.3     1  UNL1       -0.0009
      9  C7         2.4610    2.0970   -2.2330 C.3     1  UNL1        0.0185
     10  N3         1.7240    1.6370   -1.0910 N.am    1  UNL1       -0.2937
     11  C8         0.3590    1.9950   -1.0120 C.2     1  UNL1        0.2495
     12  O1        -0.1710    2.6890   -1.9110 O.2     1  UNL1       -0.2699
     13  C9        -0.5170    1.5860    0.1070 C.ar    1  UNL1        0.0723
     14  C10       -1.2320    0.4400    0.1000 C.ar    1  UNL1       -0.0433
     15  C11       -2.0560    0.0650    1.1660 C.ar    1  UNL1       -0.0406
     16  C12       -2.7760   -1.2370    1.0450 C.3     1  UNL1        0.0171
     17  C13       -3.9000   -1.2350    0.1150 C.ar    1  UNL1        0.0736
     18  N4        -3.6880   -1.6780   -1.1640 N.ar    1  UNL1       -0.1750
     19  N5        -4.6520   -1.6600   -2.0630 N.ar    1  UNL1       -0.2425
     20  C14       -5.8910   -1.2180   -1.8070 C.ar    1  UNL1        0.2725
     21  O2        -6.7930   -1.2200   -2.7170 O.2     1  UNL1       -0.2658
     22  C15       -6.1730   -0.7590   -0.5400 C.ar    1  UNL1        0.0496
     23  C16       -7.4350   -0.3100   -0.2360 C.ar    1  UNL1       -0.0487
     24  C17       -7.7140    0.1340    1.0400 C.ar    1  UNL1       -0.0610
     25  C18       -6.7220    0.1220    1.9940 C.ar    1  UNL1       -0.0611
     26  C19       -5.4480   -0.3360    1.6680 C.ar    1  UNL1       -0.0521
     27  C20       -5.1490   -0.7790    0.4140 C.ar    1  UNL1        0.0106
     28  C21       -2.1180    0.9040    2.2330 C.ar    1  UNL1       -0.0555
     29  C22       -1.3920    2.0710    2.2450 C.ar    1  UNL1       -0.0254
     30  C23       -0.5840    2.4330    1.1910 C.ar    1  UNL1        0.1355
     31  F1         0.1400    3.5900    1.1950 F       1  UNL1       -0.2047
     32  C24        2.2000    0.8420    0.0120 C.3     1  UNL1        0.0510
     33  C25        2.8330   -0.4640   -0.4000 C.3     1  UNL1        0.0960
     34 H           6.8276    0.1012    1.0839 H       1  UNL1        0.2881
     35 H           5.9438    1.3647    0.3558 H       1  UNL1        0.2881
     36 H           6.1532   -3.0791    1.8183 H       1  UNL1        0.0316
     37 H           7.2411   -3.2086    0.7732 H       1  UNL1        0.0316
     38 H           5.2316   -3.7486   -1.0234 H       1  UNL1        0.0316
     39 H           4.1875   -3.8678    0.0714 H       1  UNL1        0.0316
     40 H           3.8752    0.0290   -2.9595 H       1  UNL1        0.0726
     41 H           5.4578    0.4973   -2.3795 H       1  UNL1        0.0726
     42 H           4.4279    2.5196   -2.8623 H       1  UNL1        0.0317
     43 H           4.2194    2.3270   -1.1165 H       1  UNL1        0.0317
     44 H           2.1520    1.5294   -3.0858 H       1  UNL1        0.0466
     45 H           2.2523    3.1409   -2.3407 H       1  UNL1        0.0466
     46 H          -1.1679   -0.1812   -0.7216 H       1  UNL1        0.0629
     47 H          -3.1464   -1.5029    2.0130 H       1  UNL1        0.0377
     48 H          -2.0663   -1.9365    0.6553 H       1  UNL1        0.0377
     49 H          -4.4514   -1.9882   -2.9692 H       1  UNL1        0.1921
     50 H          -8.1713   -0.3048   -0.9591 H       1  UNL1        0.0625
     51 H          -8.6595    0.4726    1.2775 H       1  UNL1        0.0618
     52 H          -6.9224    0.4524    2.9509 H       1  UNL1        0.0618
     53 H          -4.7132   -0.3401    2.3926 H       1  UNL1        0.0624
     54 H          -2.7144    0.6633    3.0401 H       1  UNL1        0.0621
     55 H          -1.4543    2.6926    3.0664 H       1  UNL1        0.0646
     56 H           1.3712    0.6264    0.6535 H       1  UNL1        0.0502
     57 H           2.9612    1.4143    0.4998 H       1  UNL1        0.0502
     58 H           2.9156   -1.1150    0.4451 H       1  UNL1        0.0742
     59 H           2.2392   -0.9596   -1.1394 H       1  UNL1        0.0742
@<TRIPOS>BOND
     1     1     2    1
     2     2     3    2
     3     2     6    1
     4     3     4    1
     5     3     5    1
     6     4     5    1
     7     6     7    1
     8     6    33    1
     9     7     8    1
    10     8     9    1
    11     9    10    1
    12    10    11   am
    13    10    32    1
    14    11    12    2
    15    11    13    1
    16    13    14   ar
    17    13    30   ar
    18    14    15   ar
    19    15    16    1
    20    15    28   ar
    21    16    17    1
    22    17    18   ar
    23    17    27   ar
    24    18    19   ar
    25    19    20   ar
    26    20    21    2
    27    20    22   ar
    28    22    23   ar
    29    22    27   ar
    30    23    24   ar
    31    24    25   ar
    32    25    26   ar
    33    26    27   ar
    34    28    29   ar
    35    29    30   ar
    36    30    31    1
    37    32    33    1
    38     1    34    1
    39     1    35    1
    40     4    36    1
    41     4    37    1
    42     5    38    1
    43     5    39    1
    44     7    40    1
    45     7    41    1
    46     8    42    1
    47     8    43    1
    48     9    44    1
    49     9    45    1
    50    14    46    1
    51    16    47    1
    52    16    48    1
    53    19    49    1
    54    23    50    1
    55    24    51    1
    56    25    52    1
    57    26    53    1
    58    28    54    1
    59    29    55    1
    60    32    56    1
    61    32    57    1
    62    33    58    1
    63    33    59    1
@<TRIPOS>MOLECULE
../data/bude_mols_rdkit_confs2/molecule_92.pdb
 59 63 0 0 0
SMALL
GASTEIGER

@<TRIPOS>ATOM
      1  N1        -5.9550   -0.7920   -1.4120 N.pl3   1  UNL1       -0.2515
      2  C1        -5.6870   -0.0310   -0.2390 C.2     1  UNL1        0.2546
      3  C2        -6.7030    0.6980    0.2350 C.2     1  UNL1        0.0151
      4  C3        -8.1120    1.1890    0.1820 C.3     1  UNL1       -0.0202
      5  C4        -7.1710    1.6270    1.2590 C.3     1  UNL1       -0.0202
      6  N2        -4.4220   -0.0520    0.3820 N.pl3   1  UNL1       -0.2241
      7  C5        -3.7840   -1.3450    0.4230 C.3     1  UNL1        0.0818
      8  C6        -2.8150   -1.2780    1.6110 C.3     1  UNL1       -0.0009
      9  C7        -1.5090   -0.7760    1.1090 C.3     1  UNL1        0.0185
     10  N3        -1.6030    0.4790    0.4030 N.am    1  UNL1       -0.2937
     11  C8        -0.4950    0.6500   -0.4940 C.2     1  UNL1        0.2495
     12  O1        -0.4480    1.6950   -1.1730 O.2     1  UNL1       -0.2699
     13  C9         0.5590   -0.3340   -0.6410 C.ar    1  UNL1        0.0723
     14  C10        1.7010   -0.3210    0.1300 C.ar    1  UNL1       -0.0433
     15  C11        2.6760   -1.2850   -0.0590 C.ar    1  UNL1       -0.0406
     16  C12        3.8710   -1.2080    0.8540 C.3     1  UNL1        0.0171
     17  C13        4.7130   -0.0530    0.6460 C.ar    1  UNL1        0.0736
     18  N4         4.5490    1.0280    1.4450 N.ar    1  UNL1       -0.1750
     19  N5         5.2260    2.1320    1.3280 N.ar    1  UNL1       -0.2425
     20  C14        6.1560    2.2490    0.3670 C.ar    1  UNL1        0.2725
     21  O2         6.8300    3.3170    0.2320 O.2     1  UNL1       -0.2658
     22  C15        6.4040    1.2130   -0.4970 C.ar    1  UNL1        0.0496
     23  C16        7.3570    1.2870   -1.4900 C.ar    1  UNL1       -0.0487
     24  C17        7.6270    0.2510   -2.3590 C.ar    1  UNL1       -0.0610
     25  C18        6.8800   -0.8940   -2.1860 C.ar    1  UNL1       -0.0611
     26  C19        5.9110   -0.9850   -1.1850 C.ar    1  UNL1       -0.0521
     27  C20        5.6570    0.0430   -0.3390 C.ar    1  UNL1        0.0106
     28  C21        2.5580   -2.2710   -0.9950 C.ar    1  UNL1       -0.0555
     29  C22        1.4040   -2.3000   -1.7890 C.ar    1  UNL1       -0.0254
     30  C23        0.4350   -1.3430   -1.6020 C.ar    1  UNL1        0.1355
     31  F1        -0.7110   -1.3390   -2.3600 F       1  UNL1       -0.2047
     32  C24       -2.5640    1.5410    0.4490 C.3     1  UNL1        0.0510
     33  C25       -3.9360    1.1910    0.8890 C.3     1  UNL1        0.0960
     34 H          -6.8474   -0.7598   -1.8264 H       1  UNL1        0.2881
     35 H          -5.2479   -1.3504   -1.8087 H       1  UNL1        0.2881
     36 H          -8.9221    0.5282    0.4099 H       1  UNL1        0.0316
     37 H          -8.7245    1.6798   -0.5452 H       1  UNL1        0.0316
     38 H          -6.8072    2.6332    1.2724 H       1  UNL1        0.0316
     39 H          -7.1949    1.6186    2.3287 H       1  UNL1        0.0316
     40 H          -3.2508   -1.5293   -0.4862 H       1  UNL1        0.0726
     41 H          -4.4941   -2.1381    0.5304 H       1  UNL1        0.0726
     42 H          -2.6911   -2.2529    2.0343 H       1  UNL1        0.0317
     43 H          -3.1984   -0.6260    2.3678 H       1  UNL1        0.0317
     44 H          -1.0986   -1.5075    0.4446 H       1  UNL1        0.0466
     45 H          -0.8886   -0.6080    1.9645 H       1  UNL1        0.0466
     46 H           1.8294    0.4081    0.8490 H       1  UNL1        0.0629
     47 H           4.4643   -2.0853    0.7019 H       1  UNL1        0.0377
     48 H           3.4874   -1.1283    1.8497 H       1  UNL1        0.0377
     49 H           5.0567    2.8814    1.9436 H       1  UNL1        0.1921
     50 H           7.8956    2.1618   -1.5881 H       1  UNL1        0.0625
     51 H           8.3459    0.3285   -3.0953 H       1  UNL1        0.0618
     52 H           7.0401   -1.7008   -2.8092 H       1  UNL1        0.0618
     53 H           5.3728   -1.8600   -1.0864 H       1  UNL1        0.0624
     54 H           3.3004   -2.9778   -1.1150 H       1  UNL1        0.0621
     55 H           1.2827   -3.0318   -2.5064 H       1  UNL1        0.0646
     56 H          -2.6365    1.9531   -0.5358 H       1  UNL1        0.0502
     57 H          -2.1971    2.2146    1.1951 H       1  UNL1        0.0502
     58 H          -3.9415    1.1409    1.9578 H       1  UNL1        0.0742
     59 H          -4.5825    1.9508    0.5021 H       1  UNL1        0.0742
@<TRIPOS>BOND
     1     1     2    1
     2     2     3    2
     3     2     6    1
     4     3     4    1
     5     3     5    1
     6     4     5    1
     7     6     7    1
     8     6    33    1
     9     7     8    1
    10     8     9    1
    11     9    10    1
    12    10    11   am
    13    10    32    1
    14    11    12    2
    15    11    13    1
    16    13    14   ar
    17    13    30   ar
    18    14    15   ar
    19    15    16    1
    20    15    28   ar
    21    16    17    1
    22    17    18   ar
    23    17    27   ar
    24    18    19   ar
    25    19    20   ar
    26    20    21    2
    27    20    22   ar
    28    22    23   ar
    29    22    27   ar
    30    23    24   ar
    31    24    25   ar
    32    25    26   ar
    33    26    27   ar
    34    28    29   ar
    35    29    30   ar
    36    30    31    1
    37    32    33    1
    38     1    34    1
    39     1    35    1
    40     4    36    1
    41     4    37    1
    42     5    38    1
    43     5    39    1
    44     7    40    1
    45     7    41    1
    46     8    42    1
    47     8    43    1
    48     9    44    1
    49     9    45    1
    50    14    46    1
    51    16    47    1
    52    16    48    1
    53    19    49    1
    54    23    50    1
    55    24    51    1
    56    25    52    1
    57    26    53    1
    58    28    54    1
    59    29    55    1
    60    32    56    1
    61    32    57    1
    62    33    58    1
    63    33    59    1
@<TRIPOS>MOLECULE
../data/bude_mols_rdkit_confs2/molecule_92.pdb
 59 63 0 0 0
SMALL
GASTEIGER

@<TRIPOS>ATOM
      1  N1        -6.4690   -0.6110   -0.9850 N.pl3   1  UNL1       -0.2515
      2  C1        -5.6920   -0.1830    0.1280 C.2     1  UNL1        0.2546
      3  C2        -6.0780    0.9470    0.7340 C.2     1  UNL1        0.0151
      4  C3        -7.0390    2.1130    0.8200 C.3     1  UNL1       -0.0202
      5  C4        -5.9660    2.0230    1.7710 C.3     1  UNL1       -0.0202
      6  N2        -4.5670   -0.9010    0.5840 N.pl3   1  UNL1       -0.2241
      7  C5        -4.2130   -2.0690   -0.1900 C.3     1  UNL1        0.0818
      8  C6        -2.8640   -1.8370   -0.8390 C.3     1  UNL1       -0.0009
      9  C7        -1.7900   -1.5180    0.1880 C.3     1  UNL1        0.0185
     10  N3        -1.7980   -0.1100    0.5310 N.am    1  UNL1       -0.2937
     11  C8        -0.6780    0.6490    0.1040 C.2     1  UNL1        0.2495
     12  O1        -0.6570    1.8700    0.3850 O.2     1  UNL1       -0.2699
     13  C9         0.4440    0.0770   -0.6430 C.ar    1  UNL1        0.0723
     14  C10        1.5490   -0.4430   -0.0110 C.ar    1  UNL1       -0.0433
     15  C11        2.6060   -0.9800   -0.7240 C.ar    1  UNL1       -0.0406
     16  C12        3.7830   -1.5710   -0.0520 C.3     1  UNL1        0.0171
     17  C13        4.6330   -0.6320    0.6800 C.ar    1  UNL1        0.0736
     18  N4         4.4690   -0.4810    2.0350 N.ar    1  UNL1       -0.1750
     19  N5         5.1410    0.3500    2.7720 N.ar    1  UNL1       -0.2425
     20  C14        6.0820    1.1520    2.2490 C.ar    1  UNL1        0.2725
     21  O2         6.7400    1.9610    2.9500 O.2     1  UNL1       -0.2658
     22  C15        6.3060    1.0570    0.8870 C.ar    1  UNL1        0.0496
     23  C16        7.2720    1.8540    0.2970 C.ar    1  UNL1       -0.0487
     24  C17        7.5230    1.7750   -1.0370 C.ar    1  UNL1       -0.0610
     25  C18        6.7980    0.8820   -1.8130 C.ar    1  UNL1       -0.0611
     26  C19        5.8250    0.0680   -1.2660 C.ar    1  UNL1       -0.0521
     27  C20        5.5800    0.1600    0.0910 C.ar    1  UNL1        0.0106
     28  C21        2.4950   -0.9660   -2.0880 C.ar    1  UNL1       -0.0555
     29  C22        1.3860   -0.4440   -2.7500 C.ar    1  UNL1       -0.0254
     30  C23        0.3470    0.0840   -2.0260 C.ar    1  UNL1        0.1355
     31  F1        -0.7640    0.6090   -2.6440 F       1  UNL1       -0.2047
     32  C24       -2.8420    0.5830    1.2650 C.3     1  UNL1        0.0510
     33  C25       -3.8950   -0.4000    1.7560 C.3     1  UNL1        0.0960
     34 H          -7.2479   -0.0827   -1.2738 H       1  UNL1        0.2881
     35 H          -6.2275   -1.4353   -1.4661 H       1  UNL1        0.2881
     36 H          -8.0474    1.9493    1.1382 H       1  UNL1        0.0316
     37 H          -7.3732    2.8628    0.1337 H       1  UNL1        0.0316
     38 H          -5.1568    2.7215    1.7239 H       1  UNL1        0.0316
     39 H          -5.9160    2.0250    2.8398 H       1  UNL1        0.0316
     40 H          -4.9514   -2.2362   -0.9461 H       1  UNL1        0.0726
     41 H          -4.1656   -2.9264    0.4484 H       1  UNL1        0.0726
     42 H          -2.9447   -1.0170   -1.5216 H       1  UNL1        0.0317
     43 H          -2.5812   -2.7349   -1.3475 H       1  UNL1        0.0317
     44 H          -0.8329   -1.7738   -0.2163 H       1  UNL1        0.0466
     45 H          -1.9877   -2.0847    1.0738 H       1  UNL1        0.0466
     46 H           1.5908   -0.4324    1.0201 H       1  UNL1        0.0629
     47 H           4.3845   -2.0453   -0.7991 H       1  UNL1        0.0377
     48 H           3.3924   -2.2443    0.6821 H       1  UNL1        0.0377
     49 H           4.9560    0.3931    3.7380 H       1  UNL1        0.1921
     50 H           7.8089    2.5171    0.8776 H       1  UNL1        0.0625
     51 H           8.2453    2.3731   -1.4679 H       1  UNL1        0.0618
     52 H           6.9906    0.8244   -2.8252 H       1  UNL1        0.0618
     53 H           5.2945   -0.5921   -1.8558 H       1  UNL1        0.0624
     54 H           3.2660   -1.3590   -2.6503 H       1  UNL1        0.0621
     55 H           1.3461   -0.4544   -3.7812 H       1  UNL1        0.0646
     56 H          -3.3051    1.3025    0.6226 H       1  UNL1        0.0502
     57 H          -2.4036    1.0698    2.1110 H       1  UNL1        0.0502
     58 H          -3.4304   -1.2041    2.2875 H       1  UNL1        0.0742
     59 H          -4.5841    0.0735    2.4237 H       1  UNL1        0.0742
@<TRIPOS>BOND
     1     1     2    1
     2     2     3    2
     3     2     6    1
     4     3     4    1
     5     3     5    1
     6     4     5    1
     7     6     7    1
     8     6    33    1
     9     7     8    1
    10     8     9    1
    11     9    10    1
    12    10    11   am
    13    10    32    1
    14    11    12    2
    15    11    13    1
    16    13    14   ar
    17    13    30   ar
    18    14    15   ar
    19    15    16    1
    20    15    28   ar
    21    16    17    1
    22    17    18   ar
    23    17    27   ar
    24    18    19   ar
    25    19    20   ar
    26    20    21    2
    27    20    22   ar
    28    22    23   ar
    29    22    27   ar
    30    23    24   ar
    31    24    25   ar
    32    25    26   ar
    33    26    27   ar
    34    28    29   ar
    35    29    30   ar
    36    30    31    1
    37    32    33    1
    38     1    34    1
    39     1    35    1
    40     4    36    1
    41     4    37    1
    42     5    38    1
    43     5    39    1
    44     7    40    1
    45     7    41    1
    46     8    42    1
    47     8    43    1
    48     9    44    1
    49     9    45    1
    50    14    46    1
    51    16    47    1
    52    16    48    1
    53    19    49    1
    54    23    50    1
    55    24    51    1
    56    25    52    1
    57    26    53    1
    58    28    54    1
    59    29    55    1
    60    32    56    1
    61    32    57    1
    62    33    58    1
    63    33    59    1
@<TRIPOS>MOLECULE
../data/bude_mols_rdkit_confs2/molecule_92.pdb
 59 63 0 0 0
SMALL
GASTEIGER

@<TRIPOS>ATOM
      1  N1         4.1040   -0.9280    1.3080 N.pl3   1  UNL1       -0.2515
      2  C1         4.9490   -0.4090    0.2820 C.2     1  UNL1        0.2546
      3  C2         6.2470   -0.3340    0.3960 C.2     1  UNL1        0.0151
      4  C3         7.5730    0.0440   -0.1950 C.3     1  UNL1       -0.0202
      5  C4         7.5330   -0.5490    1.1850 C.3     1  UNL1       -0.0202
      6  N2         4.3170    0.0350   -0.8940 N.pl3   1  UNL1       -0.2241
      7  C5         4.1630    1.4630   -1.1090 C.3     1  UNL1        0.0818
      8  C6         2.7950    1.6340   -1.7760 C.3     1  UNL1       -0.0009
      9  C7         1.7920    1.0490   -0.8100 C.3     1  UNL1        0.0185
     10  N3         1.6410   -0.3900   -0.9680 N.am    1  UNL1       -0.2937
     11  C8         0.4970   -0.9140   -0.3120 C.2     1  UNL1        0.2495
     12  O1         0.2570   -2.1260   -0.3720 O.2     1  UNL1       -0.2699
     13  C9        -0.4250   -0.0690    0.4450 C.ar    1  UNL1        0.0723
     14  C10       -1.4950    0.4880   -0.2140 C.ar    1  UNL1       -0.0433
     15  C11       -2.4140    1.3130    0.4620 C.ar    1  UNL1       -0.0406
     16  C12       -3.5310    1.9060   -0.3030 C.3     1  UNL1        0.0171
     17  C13       -4.5080    0.8080   -0.6160 C.ar    1  UNL1        0.0736
     18  N4        -4.3910    0.1660   -1.8090 N.ar    1  UNL1       -0.1750
     19  N5        -5.1490   -0.8300   -2.1460 N.ar    1  UNL1       -0.2425
     20  C14       -6.0880   -1.2460   -1.2840 C.ar    1  UNL1        0.2725
     21  O2        -6.8290   -2.2120   -1.5990 O.2     1  UNL1       -0.2658
     22  C15       -6.2790   -0.6610   -0.0650 C.ar    1  UNL1        0.0496
     23  C16       -7.2520   -1.0760    0.8120 C.ar    1  UNL1       -0.0487
     24  C17       -7.4120   -0.4410    2.0180 C.ar    1  UNL1       -0.0610
     25  C18       -6.5970    0.6140    2.3500 C.ar    1  UNL1       -0.0611
     26  C19       -5.6120    1.0520    1.4880 C.ar    1  UNL1       -0.0521
     27  C20       -5.4490    0.4150    0.2800 C.ar    1  UNL1        0.0106
     28  C21       -2.1610    1.5090    1.7910 C.ar    1  UNL1       -0.0555
     29  C22       -1.0670    0.9360    2.4560 C.ar    1  UNL1       -0.0254
     30  C23       -0.1850    0.1360    1.7790 C.ar    1  UNL1        0.1355
     31  F1         0.8870   -0.4490    2.3450 F       1  UNL1       -0.2047
     32  C24        2.4280   -1.3580   -1.6570 C.3     1  UNL1        0.0510
     33  C25        3.8840   -1.0200   -1.7750 C.3     1  UNL1        0.0960
     34 H           4.4956   -1.2521    2.1511 H       1  UNL1        0.2881
     35 H           3.1294   -0.9620    1.1728 H       1  UNL1        0.2881
     36 H           7.8236    1.0763   -0.3237 H       1  UNL1        0.0316
     37 H           8.0874   -0.1979   -1.1015 H       1  UNL1        0.0316
     38 H           7.8995   -1.5400    1.3540 H       1  UNL1        0.0316
     39 H           7.8911   -0.2545    2.1493 H       1  UNL1        0.0316
     40 H           4.9386    1.8303   -1.7481 H       1  UNL1        0.0726
     41 H           4.2276    2.0106   -0.1920 H       1  UNL1        0.0726
     42 H           2.7660    1.1083   -2.7075 H       1  UNL1        0.0317
     43 H           2.5853    2.6616   -1.9882 H       1  UNL1        0.0317
     44 H           0.8430    1.5141   -0.9769 H       1  UNL1        0.0466
     45 H           2.1502    1.2318    0.1815 H       1  UNL1        0.0466
     46 H          -1.6267    0.2985   -1.2199 H       1  UNL1        0.0629
     47 H          -3.1626    2.3352   -1.2113 H       1  UNL1        0.0377
     48 H          -4.0058    2.6774    0.2666 H       1  UNL1        0.0377
     49 H          -5.0374   -1.2726   -3.0183 H       1  UNL1        0.1921
     50 H          -7.8647   -1.8682    0.5628 H       1  UNL1        0.0625
     51 H          -8.1435   -0.7555    2.6746 H       1  UNL1        0.0618
     52 H          -6.7233    1.0867    3.2587 H       1  UNL1        0.0618
     53 H          -5.0062    1.8465    1.7464 H       1  UNL1        0.0624
     54 H          -2.8058    2.1072    2.3309 H       1  UNL1        0.0621
     55 H          -0.9257    1.1183    3.4619 H       1  UNL1        0.0646
     56 H           2.0310   -1.4671   -2.6446 H       1  UNL1        0.0502
     57 H           2.3745   -2.2558   -1.0773 H       1  UNL1        0.0502
     58 H           4.4520   -1.8988   -1.5513 H       1  UNL1        0.0742
     59 H           4.0393   -0.6704   -2.7743 H       1  UNL1        0.0742
@<TRIPOS>BOND
     1     1     2    1
     2     2     3    2
     3     2     6    1
     4     3     4    1
     5     3     5    1
     6     4     5    1
     7     6     7    1
     8     6    33    1
     9     7     8    1
    10     8     9    1
    11     9    10    1
    12    10    11   am
    13    10    32    1
    14    11    12    2
    15    11    13    1
    16    13    14   ar
    17    13    30   ar
    18    14    15   ar
    19    15    16    1
    20    15    28   ar
    21    16    17    1
    22    17    18   ar
    23    17    27   ar
    24    18    19   ar
    25    19    20   ar
    26    20    21    2
    27    20    22   ar
    28    22    23   ar
    29    22    27   ar
    30    23    24   ar
    31    24    25   ar
    32    25    26   ar
    33    26    27   ar
    34    28    29   ar
    35    29    30   ar
    36    30    31    1
    37    32    33    1
    38     1    34    1
    39     1    35    1
    40     4    36    1
    41     4    37    1
    42     5    38    1
    43     5    39    1
    44     7    40    1
    45     7    41    1
    46     8    42    1
    47     8    43    1
    48     9    44    1
    49     9    45    1
    50    14    46    1
    51    16    47    1
    52    16    48    1
    53    19    49    1
    54    23    50    1
    55    24    51    1
    56    25    52    1
    57    26    53    1
    58    28    54    1
    59    29    55    1
    60    32    56    1
    61    32    57    1
    62    33    58    1
    63    33    59    1
@<TRIPOS>MOLECULE
../data/bude_mols_rdkit_confs2/molecule_92.pdb
 59 63 0 0 0
SMALL
GASTEIGER

@<TRIPOS>ATOM
      1  N1        -5.8410   -0.7510    1.9900 N.pl3   1  UNL1       -0.2515
      2  C1        -5.2180    0.1380    1.0650 C.2     1  UNL1        0.2546
      3  C2        -5.9550    0.8100    0.1860 C.2     1  UNL1        0.0151
      4  C3        -6.1920    1.7570   -0.9330 C.3     1  UNL1       -0.0202
      5  C4        -7.3500    1.0880   -0.3500 C.3     1  UNL1       -0.0202
      6  N2        -3.8090    0.3100    1.0740 N.pl3   1  UNL1       -0.2241
      7  C5        -3.0360   -0.7820    1.6150 C.3     1  UNL1        0.0818
      8  C6        -1.9140   -1.2170    0.7240 C.3     1  UNL1       -0.0009
      9  C7        -1.0070   -0.0930    0.2970 C.3     1  UNL1        0.0185
     10  N3        -1.5790    0.5650   -0.8680 N.am    1  UNL1       -0.2937
     11  C8        -0.9030    0.4790   -2.0940 C.2     1  UNL1        0.2495
     12  O1        -1.4120    1.0610   -3.1010 O.2     1  UNL1       -0.2699
     13  C9         0.3460   -0.2410   -2.2720 C.ar    1  UNL1        0.0723
     14  C10        1.5550    0.3870   -2.0930 C.ar    1  UNL1       -0.0433
     15  C11        2.7890   -0.2670   -2.2580 C.ar    1  UNL1       -0.0406
     16  C12        4.0450    0.5020   -2.0650 C.3     1  UNL1        0.0171
     17  C13        4.4020    0.7830   -0.6860 C.ar    1  UNL1        0.0736
     18  N4         4.0050    1.9650   -0.1330 N.ar    1  UNL1       -0.1750
     19  N5         4.2420    2.2600    1.1250 N.ar    1  UNL1       -0.2425
     20  C14        4.8860    1.4210    1.9300 C.ar    1  UNL1        0.2725
     21  O2         5.0910    1.7460    3.1290 O.2     1  UNL1       -0.2658
     22  C15        5.3270    0.2060    1.4650 C.ar    1  UNL1        0.0496
     23  C16        6.0130   -0.6740    2.2920 C.ar    1  UNL1       -0.0487
     24  C17        6.4340   -1.8610    1.7420 C.ar    1  UNL1       -0.0610
     25  C18        6.1910   -2.1790    0.4160 C.ar    1  UNL1       -0.0611
     26  C19        5.5080   -1.2920   -0.3840 C.ar    1  UNL1       -0.0521
     27  C20        5.0690   -0.1020    0.1170 C.ar    1  UNL1        0.0106
     28  C21        2.7180   -1.5840   -2.6140 C.ar    1  UNL1       -0.0555
     29  C22        1.4880   -2.2320   -2.7990 C.ar    1  UNL1       -0.0254
     30  C23        0.2950   -1.5690   -2.6300 C.ar    1  UNL1        0.1355
     31  F1        -0.8910   -2.2220   -2.8180 F       1  UNL1       -0.2047
     32  C24       -2.8170    1.3150   -0.8670 C.3     1  UNL1        0.0510
     33  C25       -3.3270    1.5770    0.5300 C.3     1  UNL1        0.0960
     34 H          -6.8186   -0.8666    1.9794 H       1  UNL1        0.2881
     35 H          -5.2934   -1.2491    2.6391 H       1  UNL1        0.2881
     36 H          -5.8737    1.4985   -1.9213 H       1  UNL1        0.0316
     37 H          -5.9344    2.7806   -1.1086 H       1  UNL1        0.0316
     38 H          -8.0493    1.6437    0.2391 H       1  UNL1        0.0316
     39 H          -8.1495    0.4872   -0.7306 H       1  UNL1        0.0316
     40 H          -3.6889   -1.6156    1.7693 H       1  UNL1        0.0726
     41 H          -2.5977   -0.4361    2.5278 H       1  UNL1        0.0726
     42 H          -2.3334   -1.6639   -0.1531 H       1  UNL1        0.0317
     43 H          -1.3165   -1.9031    1.2872 H       1  UNL1        0.0317
     44 H          -0.0428   -0.4852    0.0494 H       1  UNL1        0.0466
     45 H          -0.9065    0.6119    1.0957 H       1  UNL1        0.0466
     46 H           1.5576    1.3837   -1.8254 H       1  UNL1        0.0629
     47 H           3.9406    1.4367   -2.5752 H       1  UNL1        0.0377
     48 H           4.8290   -0.1157   -2.4507 H       1  UNL1        0.0377
     49 H           3.9346    3.1250    1.4808 H       1  UNL1        0.1921
     50 H           6.1993   -0.4454    3.2810 H       1  UNL1        0.0625
     51 H           6.9456   -2.5343    2.3336 H       1  UNL1        0.0618
     52 H           6.5208   -3.0773    0.0297 H       1  UNL1        0.0618
     53 H           5.3264   -1.5293   -1.3718 H       1  UNL1        0.0624
     54 H           3.5919   -2.1158   -2.7503 H       1  UNL1        0.0621
     55 H           1.4779   -3.2283   -3.0679 H       1  UNL1        0.0646
     56 H          -3.5565    0.7592   -1.4047 H       1  UNL1        0.0502
     57 H          -2.6269    2.2612   -1.3290 H       1  UNL1        0.0502
     58 H          -2.5355    1.9579    1.1410 H       1  UNL1        0.0742
     59 H          -4.1158    2.2998    0.5106 H       1  UNL1        0.0742
@<TRIPOS>BOND
     1     1     2    1
     2     2     3    2
     3     2     6    1
     4     3     4    1
     5     3     5    1
     6     4     5    1
     7     6     7    1
     8     6    33    1
     9     7     8    1
    10     8     9    1
    11     9    10    1
    12    10    11   am
    13    10    32    1
    14    11    12    2
    15    11    13    1
    16    13    14   ar
    17    13    30   ar
    18    14    15   ar
    19    15    16    1
    20    15    28   ar
    21    16    17    1
    22    17    18   ar
    23    17    27   ar
    24    18    19   ar
    25    19    20   ar
    26    20    21    2
    27    20    22   ar
    28    22    23   ar
    29    22    27   ar
    30    23    24   ar
    31    24    25   ar
    32    25    26   ar
    33    26    27   ar
    34    28    29   ar
    35    29    30   ar
    36    30    31    1
    37    32    33    1
    38     1    34    1
    39     1    35    1
    40     4    36    1
    41     4    37    1
    42     5    38    1
    43     5    39    1
    44     7    40    1
    45     7    41    1
    46     8    42    1
    47     8    43    1
    48     9    44    1
    49     9    45    1
    50    14    46    1
    51    16    47    1
    52    16    48    1
    53    19    49    1
    54    23    50    1
    55    24    51    1
    56    25    52    1
    57    26    53    1
    58    28    54    1
    59    29    55    1
    60    32    56    1
    61    32    57    1
    62    33    58    1
    63    33    59    1
@<TRIPOS>MOLECULE
../data/bude_mols_rdkit_confs2/molecule_92.pdb
 59 63 0 0 0
SMALL
GASTEIGER

@<TRIPOS>ATOM
      1  N1         5.7230    2.1110   -0.1990 N.pl3   1  UNL1       -0.2515
      2  C1         5.2470    0.8080   -0.5160 C.2     1  UNL1        0.2546
      3  C2         6.0740   -0.2030   -0.7310 C.2     1  UNL1        0.0151
      4  C3         6.5170   -1.5790   -1.0420 C.3     1  UNL1       -0.0202
      5  C4         7.5650   -0.6210   -0.7890 C.3     1  UNL1       -0.0202
      6  N2         3.8500    0.5870   -0.6020 N.pl3   1  UNL1       -0.2241
      7  C5         2.9920    1.7590   -0.5350 C.3     1  UNL1        0.0818
      8  C6         2.7400    2.0200    0.9290 C.3     1  UNL1       -0.0009
      9  C7         2.6260    0.6640    1.6310 C.3     1  UNL1        0.0185
     10  N3         1.7330   -0.2300    0.9280 N.am    1  UNL1       -0.2937
     11  C8         0.4320   -0.2990    1.4210 C.2     1  UNL1        0.2495
     12  O1         0.0960    0.3990    2.4130 O.2     1  UNL1       -0.2699
     13  C9        -0.6240   -1.1530    0.8610 C.ar    1  UNL1        0.0723
     14  C10       -1.4550   -0.6820   -0.1550 C.ar    1  UNL1       -0.0433
     15  C11       -2.4500   -1.4370   -0.7030 C.ar    1  UNL1       -0.0406
     16  C12       -3.3920   -0.9750   -1.7840 C.3     1  UNL1        0.0171
     17  C13       -4.7320   -0.6670   -1.2980 C.ar    1  UNL1        0.0736
     18  N4        -5.7290   -1.6040   -1.3220 N.ar    1  UNL1       -0.1750
     19  N5        -6.9310   -1.3930   -0.8460 N.ar    1  UNL1       -0.2425
     20  C14       -7.2780   -0.2070   -0.2860 C.ar    1  UNL1        0.2725
     21  O2        -8.4260    0.0040    0.1730 O.2     1  UNL1       -0.2658
     22  C15       -6.3320    0.7870   -0.2260 C.ar    1  UNL1        0.0496
     23  C16       -6.6530    2.0140    0.3220 C.ar    1  UNL1       -0.0487
     24  C17       -5.7470    3.0360    0.3850 C.ar    1  UNL1       -0.0610
     25  C18       -4.4840    2.8140   -0.1180 C.ar    1  UNL1       -0.0611
     26  C19       -4.1640    1.5790   -0.6680 C.ar    1  UNL1       -0.0521
     27  C20       -5.0440    0.5440   -0.7420 C.ar    1  UNL1        0.0106
     28  C21       -2.6100   -2.7380   -0.1950 C.ar    1  UNL1       -0.0555
     29  C22       -1.8200   -3.2530    0.8040 C.ar    1  UNL1       -0.0254
     30  C23       -0.8350   -2.4320    1.3100 C.ar    1  UNL1        0.1355
     31  F1        -0.0210   -2.9010    2.3110 F       1  UNL1       -0.2047
     32  C24        2.0360   -1.0490   -0.2250 C.3     1  UNL1        0.0510
     33  C25        3.4310   -0.7850   -0.7490 C.3     1  UNL1        0.0960
     34 H           6.6909    2.2796   -0.1358 H       1  UNL1        0.2881
     35 H           5.0844    2.8439   -0.0429 H       1  UNL1        0.2881
     36 H           6.3843   -1.9606   -2.0328 H       1  UNL1        0.0316
     37 H           6.2828   -2.5359   -0.6245 H       1  UNL1        0.0316
     38 H           8.1418   -0.6805    0.1103 H       1  UNL1        0.0316
     39 H           8.4310   -0.2820   -1.3181 H       1  UNL1        0.0316
     40 H           2.0685    1.5708   -1.0415 H       1  UNL1        0.0726
     41 H           3.4512    2.6030   -1.0058 H       1  UNL1        0.0726
     42 H           1.8304    2.5704    1.0497 H       1  UNL1        0.0317
     43 H           3.5388    2.5939    1.3502 H       1  UNL1        0.0317
     44 H           2.2534    0.8172    2.6223 H       1  UNL1        0.0466
     45 H           3.5977    0.2165    1.6509 H       1  UNL1        0.0466
     46 H          -1.3112    0.2775   -0.5068 H       1  UNL1        0.0629
     47 H          -3.4683   -1.7484   -2.5195 H       1  UNL1        0.0377
     48 H          -2.9882   -0.0695   -2.1863 H       1  UNL1        0.0377
     49 H          -7.5999   -2.1137   -0.8959 H       1  UNL1        0.1921
     50 H          -7.6038    2.1634    0.6944 H       1  UNL1        0.0625
     51 H          -6.0019    3.9471    0.7973 H       1  UNL1        0.0618
     52 H          -3.7762    3.5643   -0.0863 H       1  UNL1        0.0618
     53 H          -3.2111    1.4397   -1.0390 H       1  UNL1        0.0624
     54 H          -3.3546   -3.3331   -0.5904 H       1  UNL1        0.0621
     55 H          -1.9578   -4.2119    1.1598 H       1  UNL1        0.0646
     56 H           1.3287   -0.8339   -0.9985 H       1  UNL1        0.0502
     57 H           1.9801   -2.0756    0.0715 H       1  UNL1        0.0502
     58 H           4.1173   -1.4080   -0.2143 H       1  UNL1        0.0742
     59 H           3.4198   -1.0004   -1.7970 H       1  UNL1        0.0742
@<TRIPOS>BOND
     1     1     2    1
     2     2     3    2
     3     2     6    1
     4     3     4    1
     5     3     5    1
     6     4     5    1
     7     6     7    1
     8     6    33    1
     9     7     8    1
    10     8     9    1
    11     9    10    1
    12    10    11   am
    13    10    32    1
    14    11    12    2
    15    11    13    1
    16    13    14   ar
    17    13    30   ar
    18    14    15   ar
    19    15    16    1
    20    15    28   ar
    21    16    17    1
    22    17    18   ar
    23    17    27   ar
    24    18    19   ar
    25    19    20   ar
    26    20    21    2
    27    20    22   ar
    28    22    23   ar
    29    22    27   ar
    30    23    24   ar
    31    24    25   ar
    32    25    26   ar
    33    26    27   ar
    34    28    29   ar
    35    29    30   ar
    36    30    31    1
    37    32    33    1
    38     1    34    1
    39     1    35    1
    40     4    36    1
    41     4    37    1
    42     5    38    1
    43     5    39    1
    44     7    40    1
    45     7    41    1
    46     8    42    1
    47     8    43    1
    48     9    44    1
    49     9    45    1
    50    14    46    1
    51    16    47    1
    52    16    48    1
    53    19    49    1
    54    23    50    1
    55    24    51    1
    56    25    52    1
    57    26    53    1
    58    28    54    1
    59    29    55    1
    60    32    56    1
    61    32    57    1
    62    33    58    1
    63    33    59    1
@<TRIPOS>MOLECULE
../data/bude_mols_rdkit_confs2/molecule_92.pdb
 59 63 0 0 0
SMALL
GASTEIGER

@<TRIPOS>ATOM
      1  N1        -4.2120    1.5210   -2.2530 N.pl3   1  UNL1       -0.2515
      2  C1        -4.6680    0.8740   -1.0880 C.2     1  UNL1        0.2546
      3  C2        -5.9520    0.8440   -0.8200 C.2     1  UNL1        0.0151
      4  C3        -7.3880    1.2310   -1.2230 C.3     1  UNL1       -0.0202
      5  C4        -7.1510    0.4800   -0.0090 C.3     1  UNL1       -0.0202
      6  N2        -3.7630    0.2670   -0.2150 N.pl3   1  UNL1       -0.2241
      7  C5        -3.0570   -0.8590   -0.7580 C.3     1  UNL1        0.0818
      8  C6        -1.6390   -0.5610   -1.1230 C.3     1  UNL1       -0.0009
      9  C7        -0.9060    0.0330    0.0210 C.3     1  UNL1        0.0185
     10  N3        -1.4590   -0.2450    1.3280 N.am    1  UNL1       -0.2937
     11  C8        -0.6590   -1.1140    2.1000 C.2     1  UNL1        0.2495
     12  O1        -1.0820   -1.4150    3.2690 O.2     1  UNL1       -0.2699
     13  C9         0.5980   -1.6830    1.6600 C.ar    1  UNL1        0.0723
     14  C10        1.7540   -1.0110    1.9220 C.ar    1  UNL1       -0.0433
     15  C11        2.9970   -1.5290    1.5200 C.ar    1  UNL1       -0.0406
     16  C12        4.1980   -0.7400    1.8760 C.3     1  UNL1        0.0171
     17  C13        4.2850    0.4600    1.0060 C.ar    1  UNL1        0.0736
     18  N4         3.7590    1.6400    1.4780 N.ar    1  UNL1       -0.1750
     19  N5         3.7420    2.7490    0.7730 N.ar    1  UNL1       -0.2425
     20  C14        4.2470    2.7680   -0.4530 C.ar    1  UNL1        0.2725
     21  O2         4.2070    3.8670   -1.0990 O.2     1  UNL1       -0.2658
     22  C15        4.7990    1.6400   -1.0200 C.ar    1  UNL1        0.0496
     23  C16        5.3350    1.6830   -2.3000 C.ar    1  UNL1       -0.0487
     24  C17        5.8860    0.5320   -2.8070 C.ar    1  UNL1       -0.0610
     25  C18        5.8990   -0.6210   -2.0560 C.ar    1  UNL1       -0.0611
     26  C19        5.3630   -0.6540   -0.7830 C.ar    1  UNL1       -0.0521
     27  C20        4.8090    0.4730   -0.2580 C.ar    1  UNL1        0.0106
     28  C21        3.0310   -2.7270    0.8570 C.ar    1  UNL1       -0.0555
     29  C22        1.8450   -3.4150    0.5880 C.ar    1  UNL1       -0.0254
     30  C23        0.6240   -2.8820    0.9960 C.ar    1  UNL1        0.1355
     31  F1        -0.5590   -3.4980    0.7690 F       1  UNL1       -0.2047
     32  C24       -2.6450    0.2000    1.9750 C.3     1  UNL1        0.0510
     33  C25       -3.6590    0.8390    1.0870 C.3     1  UNL1        0.0960
     34 H          -4.8561    1.9468   -2.8638 H       1  UNL1        0.2881
     35 H          -3.2491    1.5475   -2.4565 H       1  UNL1        0.2881
     36 H          -7.8542    0.7587   -2.0623 H       1  UNL1        0.0316
     37 H          -7.8869    2.1469   -1.4619 H       1  UNL1        0.0316
     38 H          -7.3072    0.9501    0.9394 H       1  UNL1        0.0316
     39 H          -7.5307   -0.4448    0.3725 H       1  UNL1        0.0316
     40 H          -3.5703   -1.1871   -1.6377 H       1  UNL1        0.0726
     41 H          -3.0321   -1.6092    0.0045 H       1  UNL1        0.0726
     42 H          -1.6264    0.1280   -1.9416 H       1  UNL1        0.0317
     43 H          -1.1586   -1.4776   -1.3950 H       1  UNL1        0.0317
     44 H          -0.8924    1.0946   -0.1119 H       1  UNL1        0.0466
     45 H           0.0652   -0.4159    0.0119 H       1  UNL1        0.0466
     46 H           1.7162   -0.1093    2.4225 H       1  UNL1        0.0629
     47 H           5.0721   -1.3420    1.7400 H       1  UNL1        0.0377
     48 H           4.1291   -0.4320    2.8984 H       1  UNL1        0.0377
     49 H           3.3531    3.5682    1.1563 H       1  UNL1        0.1921
     50 H           5.3198    2.5538   -2.8537 H       1  UNL1        0.0625
     51 H           6.2923    0.5316   -3.7557 H       1  UNL1        0.0618
     52 H           6.3172   -1.4777   -2.4513 H       1  UNL1        0.0618
     53 H           5.3826   -1.5275   -0.2338 H       1  UNL1        0.0624
     54 H           3.9351   -3.1226    0.5553 H       1  UNL1        0.0621
     55 H           1.8734   -4.3171    0.0876 H       1  UNL1        0.0646
     56 H          -2.3653    0.9127    2.7225 H       1  UNL1        0.0502
     57 H          -3.1117   -0.6781    2.3700 H       1  UNL1        0.0502
     58 H          -4.6143    0.7592    1.5623 H       1  UNL1        0.0742
     59 H          -3.3391    1.8502    0.9456 H       1  UNL1        0.0742
@<TRIPOS>BOND
     1     1     2    1
     2     2     3    2
     3     2     6    1
     4     3     4    1
     5     3     5    1
     6     4     5    1
     7     6     7    1
     8     6    33    1
     9     7     8    1
    10     8     9    1
    11     9    10    1
    12    10    11   am
    13    10    32    1
    14    11    12    2
    15    11    13    1
    16    13    14   ar
    17    13    30   ar
    18    14    15   ar
    19    15    16    1
    20    15    28   ar
    21    16    17    1
    22    17    18   ar
    23    17    27   ar
    24    18    19   ar
    25    19    20   ar
    26    20    21    2
    27    20    22   ar
    28    22    23   ar
    29    22    27   ar
    30    23    24   ar
    31    24    25   ar
    32    25    26   ar
    33    26    27   ar
    34    28    29   ar
    35    29    30   ar
    36    30    31    1
    37    32    33    1
    38     1    34    1
    39     1    35    1
    40     4    36    1
    41     4    37    1
    42     5    38    1
    43     5    39    1
    44     7    40    1
    45     7    41    1
    46     8    42    1
    47     8    43    1
    48     9    44    1
    49     9    45    1
    50    14    46    1
    51    16    47    1
    52    16    48    1
    53    19    49    1
    54    23    50    1
    55    24    51    1
    56    25    52    1
    57    26    53    1
    58    28    54    1
    59    29    55    1
    60    32    56    1
    61    32    57    1
    62    33    58    1
    63    33    59    1
@<TRIPOS>MOLECULE
../data/bude_mols_rdkit_confs2/molecule_92.pdb
 59 63 0 0 0
SMALL
GASTEIGER

@<TRIPOS>ATOM
      1  N1        -6.6810   -2.0900    0.3180 N.pl3   1  UNL1       -0.2515
      2  C1        -5.9660   -0.8500    0.1500 C.2     1  UNL1        0.2546
      3  C2        -6.5850    0.2990    0.4010 C.2     1  UNL1        0.0151
      4  C3        -6.6550    1.7670    0.4920 C.3     1  UNL1       -0.0202
      5  C4        -7.8510    0.9890    0.8400 C.3     1  UNL1       -0.0202
      6  N2        -4.6290   -0.8890   -0.2770 N.pl3   1  UNL1       -0.2241
      7  C5        -4.0280    0.3470   -0.7340 C.3     1  UNL1        0.0818
      8  C6        -2.9670    0.7590    0.2690 C.3     1  UNL1       -0.0009
      9  C7        -1.9150   -0.2870    0.4440 C.3     1  UNL1        0.0185
     10  N3        -1.7890   -1.1890   -0.6760 N.am    1  UNL1       -0.2937
     11  C8        -0.6150   -1.0800   -1.4260 C.2     1  UNL1        0.2495
     12  O1        -0.4450   -1.8440   -2.4180 O.2     1  UNL1       -0.2699
     13  C9         0.4240   -0.0870   -1.0720 C.ar    1  UNL1        0.0723
     14  C10        1.4210   -0.3910   -0.2130 C.ar    1  UNL1       -0.0433
     15  C11        2.4340    0.5170    0.1810 C.ar    1  UNL1       -0.0406
     16  C12        3.4660    0.0760    1.1450 C.3     1  UNL1        0.0171
     17  C13        4.7140   -0.4260    0.5700 C.ar    1  UNL1        0.0736
     18  N4         4.8340   -1.7580    0.2610 N.ar    1  UNL1       -0.1750
     19  N5         5.8950   -2.2810   -0.3130 N.ar    1  UNL1       -0.2425
     20  C14        6.9920   -1.5700   -0.6640 C.ar    1  UNL1        0.2725
     21  O2         7.9660   -2.1330   -1.2070 O.2     1  UNL1       -0.2658
     22  C15        6.9340   -0.2220   -0.3770 C.ar    1  UNL1        0.0496
     23  C16        8.0510    0.5180   -0.7020 C.ar    1  UNL1       -0.0487
     24  C17        8.0370    1.8780   -0.4010 C.ar    1  UNL1       -0.0610
     25  C18        6.9350    2.4300    0.1980 C.ar    1  UNL1       -0.0611
     26  C19        5.8160    1.6650    0.5190 C.ar    1  UNL1       -0.0521
     27  C20        5.8170    0.3390    0.2290 C.ar    1  UNL1        0.0106
     28  C21        2.4040    1.7730   -0.3390 C.ar    1  UNL1       -0.0555
     29  C22        1.3730    2.0970   -1.2330 C.ar    1  UNL1       -0.0254
     30  C23        0.3970    1.1860   -1.5970 C.ar    1  UNL1        0.1355
     31  F1        -0.6070    1.4800   -2.4520 F       1  UNL1       -0.2047
     32  C24       -2.7360   -2.1840   -1.1040 C.3     1  UNL1        0.0510
     33  C25       -3.9780   -2.1850   -0.2090 C.3     1  UNL1        0.0960
     34 H          -7.6190   -2.0808    0.6167 H       1  UNL1        0.2881
     35 H          -6.2314   -2.9463    0.1340 H       1  UNL1        0.2881
     36 H          -6.6462    2.3549   -0.4020 H       1  UNL1        0.0316
     37 H          -6.0762    2.5127    0.9958 H       1  UNL1        0.0316
     38 H          -8.1720    0.9247    1.8587 H       1  UNL1        0.0316
     39 H          -8.8721    0.9801    0.5205 H       1  UNL1        0.0316
     40 H          -4.7758    1.1091   -0.8035 H       1  UNL1        0.0726
     41 H          -3.5889    0.2088   -1.6999 H       1  UNL1        0.0726
     42 H          -3.4370    0.9357    1.2139 H       1  UNL1        0.0317
     43 H          -2.4912    1.6425   -0.1024 H       1  UNL1        0.0317
     44 H          -2.1546   -0.8625    1.3137 H       1  UNL1        0.0466
     45 H          -0.9807    0.2268    0.5332 H       1  UNL1        0.0466
     46 H           1.4462   -1.3445    0.1809 H       1  UNL1        0.0629
     47 H           3.0434   -0.7057    1.7409 H       1  UNL1        0.0377
     48 H           3.7365    0.9524    1.6960 H       1  UNL1        0.0377
     49 H           5.8913   -3.2478   -0.4987 H       1  UNL1        0.1921
     50 H           8.8693    0.0794   -1.1527 H       1  UNL1        0.0625
     51 H           8.8531    2.4674   -0.6281 H       1  UNL1        0.0618
     52 H           6.9341    3.4385    0.4169 H       1  UNL1        0.0618
     53 H           4.9971    2.1007    0.9713 H       1  UNL1        0.0624
     54 H           3.1210    2.4696   -0.0826 H       1  UNL1        0.0621
     55 H           1.3411    3.0477   -1.6332 H       1  UNL1        0.0646
     56 H          -2.2735   -3.1479   -1.0607 H       1  UNL1        0.0502
     57 H          -3.0388   -1.9563   -2.1047 H       1  UNL1        0.0502
     58 H          -4.6565   -2.9422   -0.5425 H       1  UNL1        0.0742
     59 H          -3.6875   -2.3839    0.8014 H       1  UNL1        0.0742
@<TRIPOS>BOND
     1     1     2    1
     2     2     3    2
     3     2     6    1
     4     3     4    1
     5     3     5    1
     6     4     5    1
     7     6     7    1
     8     6    33    1
     9     7     8    1
    10     8     9    1
    11     9    10    1
    12    10    11   am
    13    10    32    1
    14    11    12    2
    15    11    13    1
    16    13    14   ar
    17    13    30   ar
    18    14    15   ar
    19    15    16    1
    20    15    28   ar
    21    16    17    1
    22    17    18   ar
    23    17    27   ar
    24    18    19   ar
    25    19    20   ar
    26    20    21    2
    27    20    22   ar
    28    22    23   ar
    29    22    27   ar
    30    23    24   ar
    31    24    25   ar
    32    25    26   ar
    33    26    27   ar
    34    28    29   ar
    35    29    30   ar
    36    30    31    1
    37    32    33    1
    38     1    34    1
    39     1    35    1
    40     4    36    1
    41     4    37    1
    42     5    38    1
    43     5    39    1
    44     7    40    1
    45     7    41    1
    46     8    42    1
    47     8    43    1
    48     9    44    1
    49     9    45    1
    50    14    46    1
    51    16    47    1
    52    16    48    1
    53    19    49    1
    54    23    50    1
    55    24    51    1
    56    25    52    1
    57    26    53    1
    58    28    54    1
    59    29    55    1
    60    32    56    1
    61    32    57    1
    62    33    58    1
    63    33    59    1
@<TRIPOS>MOLECULE
../data/bude_mols_rdkit_confs2/molecule_92.pdb
 59 63 0 0 0
SMALL
GASTEIGER

@<TRIPOS>ATOM
      1  N1         4.1850    0.2130   -0.6290 N.pl3   1  UNL1       -0.2515
      2  C1         3.5050   -0.7220    0.1960 C.2     1  UNL1        0.2546
      3  C2         3.4420   -1.9840   -0.1870 C.2     1  UNL1        0.0151
      4  C3         3.7220   -3.1220   -1.1240 C.3     1  UNL1       -0.0202
      5  C4         2.9610   -3.4030    0.0990 C.3     1  UNL1       -0.0202
      6  N2         2.9120   -0.2850    1.4130 N.pl3   1  UNL1       -0.2241
      7  C5         1.6500   -0.9110    1.7340 C.3     1  UNL1        0.0818
      8  C6         0.9900   -0.0960    2.8210 C.3     1  UNL1       -0.0009
      9  C7         0.4880    1.1850    2.2040 C.3     1  UNL1        0.0185
     10  N3         1.5950    1.9950    1.6940 N.am    1  UNL1       -0.2937
     11  C8         1.1980    2.8430    0.6300 C.2     1  UNL1        0.2495
     12  O1         2.1020    3.5870    0.1160 O.2     1  UNL1       -0.2699
     13  C9        -0.1480    2.9110    0.1070 C.ar    1  UNL1        0.0723
     14  C10       -0.5310    2.0900   -0.9290 C.ar    1  UNL1       -0.0433
     15  C11       -1.7930    2.1130   -1.4710 C.ar    1  UNL1       -0.0406
     16  C12       -2.1450    1.2050   -2.5680 C.3     1  UNL1        0.0171
     17  C13       -3.1610    0.1880   -2.2520 C.ar    1  UNL1        0.0736
     18  N4        -4.4400    0.4650   -2.6280 N.ar    1  UNL1       -0.1750
     19  N5        -5.4670   -0.3090   -2.3980 N.ar    1  UNL1       -0.2425
     20  C14       -5.2820   -1.4650   -1.7480 C.ar    1  UNL1        0.2725
     21  O2        -6.2190   -2.2570   -1.4910 O.2     1  UNL1       -0.2658
     22  C15       -4.0070   -1.7920   -1.3470 C.ar    1  UNL1        0.0496
     23  C16       -3.7820   -2.9910   -0.6750 C.ar    1  UNL1       -0.0487
     24  C17       -2.5110   -3.3330   -0.2750 C.ar    1  UNL1       -0.0610
     25  C18       -1.4290   -2.5090   -0.5240 C.ar    1  UNL1       -0.0611
     26  C19       -1.6280   -1.3180   -1.1870 C.ar    1  UNL1       -0.0521
     27  C20       -2.8980   -0.9670   -1.5900 C.ar    1  UNL1        0.0106
     28  C21       -2.7200    3.0130   -0.9400 C.ar    1  UNL1       -0.0555
     29  C22       -2.3470    3.8260    0.0840 C.ar    1  UNL1       -0.0254
     30  C23       -1.0660    3.7870    0.6170 C.ar    1  UNL1        0.1355
     31  F1        -0.6850    4.5910    1.6360 F       1  UNL1       -0.2047
     32  C24        2.9720    2.0710    2.0860 C.3     1  UNL1        0.0510
     33  C25        3.6440    0.7150    2.1560 C.3     1  UNL1        0.0960
     34 H           4.5974   -0.0834   -1.4724 H       1  UNL1        0.2881
     35 H           4.2439    1.1575   -0.3575 H       1  UNL1        0.2881
     36 H           4.7207   -3.4929   -1.2238 H       1  UNL1        0.0316
     37 H           3.5477   -3.2903   -2.1662 H       1  UNL1        0.0316
     38 H           1.9186   -3.6366    0.0382 H       1  UNL1        0.0316
     39 H           3.0673   -4.0870    0.9149 H       1  UNL1        0.0316
     40 H           1.8172   -1.9098    2.0794 H       1  UNL1        0.0726
     41 H           1.0238   -0.9526    0.8674 H       1  UNL1        0.0726
     42 H           1.6999    0.1255    3.5904 H       1  UNL1        0.0317
     43 H           0.1786   -0.6426    3.2543 H       1  UNL1        0.0317
     44 H          -0.0421    1.7454    2.9455 H       1  UNL1        0.0466
     45 H          -0.1564    0.9379    1.3863 H       1  UNL1        0.0466
     46 H           0.1601    1.4282   -1.3156 H       1  UNL1        0.0629
     47 H          -1.2543    0.6965   -2.8729 H       1  UNL1        0.0377
     48 H          -2.5749    1.8206   -3.3303 H       1  UNL1        0.0377
     49 H          -6.3665   -0.0454   -2.6991 H       1  UNL1        0.1921
     50 H          -4.5716   -3.6251   -0.4764 H       1  UNL1        0.0625
     51 H          -2.3617   -4.2249    0.2222 H       1  UNL1        0.0618
     52 H          -0.4828   -2.7832   -0.2166 H       1  UNL1        0.0618
     53 H          -0.8305   -0.6923   -1.3807 H       1  UNL1        0.0624
     54 H          -3.6779    3.0603   -1.3209 H       1  UNL1        0.0621
     55 H          -3.0341    4.4893    0.4751 H       1  UNL1        0.0646
     56 H           3.0267    2.5288    3.0516 H       1  UNL1        0.0502
     57 H           3.4850    2.6441    1.3422 H       1  UNL1        0.0502
     58 H           4.6304    0.7958    1.7493 H       1  UNL1        0.0742
     59 H           3.6749    0.4114    3.1816 H       1  UNL1        0.0742
@<TRIPOS>BOND
     1     1     2    1
     2     2     3    2
     3     2     6    1
     4     3     4    1
     5     3     5    1
     6     4     5    1
     7     6     7    1
     8     6    33    1
     9     7     8    1
    10     8     9    1
    11     9    10    1
    12    10    11   am
    13    10    32    1
    14    11    12    2
    15    11    13    1
    16    13    14   ar
    17    13    30   ar
    18    14    15   ar
    19    15    16    1
    20    15    28   ar
    21    16    17    1
    22    17    18   ar
    23    17    27   ar
    24    18    19   ar
    25    19    20   ar
    26    20    21    2
    27    20    22   ar
    28    22    23   ar
    29    22    27   ar
    30    23    24   ar
    31    24    25   ar
    32    25    26   ar
    33    26    27   ar
    34    28    29   ar
    35    29    30   ar
    36    30    31    1
    37    32    33    1
    38     1    34    1
    39     1    35    1
    40     4    36    1
    41     4    37    1
    42     5    38    1
    43     5    39    1
    44     7    40    1
    45     7    41    1
    46     8    42    1
    47     8    43    1
    48     9    44    1
    49     9    45    1
    50    14    46    1
    51    16    47    1
    52    16    48    1
    53    19    49    1
    54    23    50    1
    55    24    51    1
    56    25    52    1
    57    26    53    1
    58    28    54    1
    59    29    55    1
    60    32    56    1
    61    32    57    1
    62    33    58    1
    63    33    59    1
@<TRIPOS>MOLECULE
../data/bude_mols_rdkit_confs2/molecule_92.pdb
 59 63 0 0 0
SMALL
GASTEIGER

@<TRIPOS>ATOM
      1  N1        -5.8160    1.9520    0.5570 N.pl3   1  UNL1       -0.2515
      2  C1        -5.5860    0.5450    0.4220 C.2     1  UNL1        0.2546
      3  C2        -6.6220   -0.2460    0.1860 C.2     1  UNL1        0.0151
      4  C3        -8.1200   -0.3850   -0.0360 C.3     1  UNL1       -0.0202
      5  C4        -7.2780   -1.5570   -0.0580 C.3     1  UNL1       -0.0202
      6  N2        -4.2700    0.0300    0.5420 N.pl3   1  UNL1       -0.2241
      7  C5        -3.7270   -0.6940   -0.5670 C.3     1  UNL1        0.0818
      8  C6        -2.9440    0.1450   -1.5240 C.3     1  UNL1       -0.0009
      9  C7        -1.7340    0.7940   -0.9590 C.3     1  UNL1        0.0185
     10  N3        -1.5830    0.6980    0.4610 N.am    1  UNL1       -0.2937
     11  C8        -0.4380    0.0040    0.8940 C.2     1  UNL1        0.2495
     12  O1        -0.2350   -0.1230    2.1250 O.2     1  UNL1       -0.2699
     13  C9         0.5170   -0.5720   -0.0430 C.ar    1  UNL1        0.0723
     14  C10        1.6080    0.1780   -0.4990 C.ar    1  UNL1       -0.0433
     15  C11        2.5380   -0.3040   -1.3770 C.ar    1  UNL1       -0.0406
     16  C12        3.6710    0.5100   -1.8160 C.3     1  UNL1        0.0171
     17  C13        4.9900    0.1020   -1.3530 C.ar    1  UNL1        0.0736
     18  N4         5.7700   -0.6760   -2.1580 N.ar    1  UNL1       -0.1750
     19  N5         6.9500   -1.1310   -1.8220 N.ar    1  UNL1       -0.2425
     20  C14        7.4870   -0.8540   -0.6260 C.ar    1  UNL1        0.2725
     21  O2         8.6310   -1.2910   -0.2860 O.2     1  UNL1       -0.2658
     22  C15        6.7370   -0.0610    0.2410 C.ar    1  UNL1        0.0496
     23  C16        7.2970    0.2350    1.4720 C.ar    1  UNL1       -0.0487
     24  C17        6.6190    1.0220    2.3710 C.ar    1  UNL1       -0.0610
     25  C18        5.3790    1.4910    1.9930 C.ar    1  UNL1       -0.0611
     26  C19        4.8060    1.2090    0.7790 C.ar    1  UNL1       -0.0521
     27  C20        5.4950    0.4170   -0.1170 C.ar    1  UNL1        0.0106
     28  C21        2.3590   -1.6170   -1.8230 C.ar    1  UNL1       -0.0555
     29  C22        1.3130   -2.3690   -1.4010 C.ar    1  UNL1       -0.0254
     30  C23        0.3850   -1.8660   -0.5150 C.ar    1  UNL1        0.1355
     31  F1        -0.6670   -2.6090   -0.0830 F       1  UNL1       -0.2047
     32  C24       -2.4370    1.2140    1.4920 C.3     1  UNL1        0.0510
     33  C25       -3.6050    0.2970    1.8000 C.3     1  UNL1        0.0960
     34 H          -6.7286    2.3118    0.4741 H       1  UNL1        0.2881
     35 H          -5.0615    2.5595    0.7327 H       1  UNL1        0.2881
     36 H          -8.5617   -0.0269   -0.9424 H       1  UNL1        0.0316
     37 H          -8.9949   -0.0928    0.5063 H       1  UNL1        0.0316
     38 H          -7.3447   -2.2702    0.7369 H       1  UNL1        0.0316
     39 H          -7.1214   -2.3448   -0.7650 H       1  UNL1        0.0316
     40 H          -4.5366   -1.1452   -1.1016 H       1  UNL1        0.0726
     41 H          -3.0460   -1.4123   -0.1606 H       1  UNL1        0.0726
     42 H          -3.5895    0.9144   -1.8931 H       1  UNL1        0.0317
     43 H          -2.5934   -0.5227   -2.2830 H       1  UNL1        0.0317
     44 H          -1.7674    1.8320   -1.2165 H       1  UNL1        0.0466
     45 H          -0.9002    0.2694   -1.3767 H       1  UNL1        0.0466
     46 H           1.7154    1.1448   -0.1543 H       1  UNL1        0.0629
     47 H           3.5029    1.5100   -1.4745 H       1  UNL1        0.0377
     48 H           3.7005    0.3989   -2.8798 H       1  UNL1        0.0377
     49 H           7.4527   -1.6873   -2.4600 H       1  UNL1        0.1921
     50 H           8.2282   -0.1373    1.7155 H       1  UNL1        0.0625
     51 H           7.0219    1.2529    3.2926 H       1  UNL1        0.0618
     52 H           4.8558    2.0837    2.6563 H       1  UNL1        0.0618
     53 H           3.8745    1.5831    0.5395 H       1  UNL1        0.0624
     54 H           3.0372   -2.0220   -2.4871 H       1  UNL1        0.0621
     55 H           1.2098   -3.3350   -1.7493 H       1  UNL1        0.0646
     56 H          -2.8203    2.1618    1.1762 H       1  UNL1        0.0502
     57 H          -1.8510    1.3003    2.3831 H       1  UNL1        0.0502
     58 H          -3.2524   -0.6165    2.2314 H       1  UNL1        0.0742
     59 H          -4.2752    0.7507    2.4999 H       1  UNL1        0.0742
@<TRIPOS>BOND
     1     1     2    1
     2     2     3    2
     3     2     6    1
     4     3     4    1
     5     3     5    1
     6     4     5    1
     7     6     7    1
     8     6    33    1
     9     7     8    1
    10     8     9    1
    11     9    10    1
    12    10    11   am
    13    10    32    1
    14    11    12    2
    15    11    13    1
    16    13    14   ar
    17    13    30   ar
    18    14    15   ar
    19    15    16    1
    20    15    28   ar
    21    16    17    1
    22    17    18   ar
    23    17    27   ar
    24    18    19   ar
    25    19    20   ar
    26    20    21    2
    27    20    22   ar
    28    22    23   ar
    29    22    27   ar
    30    23    24   ar
    31    24    25   ar
    32    25    26   ar
    33    26    27   ar
    34    28    29   ar
    35    29    30   ar
    36    30    31    1
    37    32    33    1
    38     1    34    1
    39     1    35    1
    40     4    36    1
    41     4    37    1
    42     5    38    1
    43     5    39    1
    44     7    40    1
    45     7    41    1
    46     8    42    1
    47     8    43    1
    48     9    44    1
    49     9    45    1
    50    14    46    1
    51    16    47    1
    52    16    48    1
    53    19    49    1
    54    23    50    1
    55    24    51    1
    56    25    52    1
    57    26    53    1
    58    28    54    1
    59    29    55    1
    60    32    56    1
    61    32    57    1
    62    33    58    1
    63    33    59    1
@<TRIPOS>MOLECULE
../data/bude_mols_rdkit_confs2/molecule_92.pdb
 59 63 0 0 0
SMALL
GASTEIGER

@<TRIPOS>ATOM
      1  N1         6.3060   -1.7550    1.6210 N.pl3   1  UNL1       -0.2515
      2  C1         5.8350   -0.5990    0.9230 C.2     1  UNL1        0.2546
      3  C2         6.6750    0.2370    0.3280 C.2     1  UNL1        0.0151
      4  C3         8.0960    0.5270    0.0320 C.3     1  UNL1       -0.0202
      5  C4         6.9920    1.4490   -0.4560 C.3     1  UNL1       -0.0202
      6  N2         4.4490   -0.3750    0.8610 N.pl3   1  UNL1       -0.2241
      7  C5         3.9830    0.9780    0.6790 C.3     1  UNL1        0.0818
      8  C6         3.1680    1.1100   -0.5970 C.3     1  UNL1       -0.0009
      9  C7         1.8070    0.5520   -0.2980 C.3     1  UNL1        0.0185
     10  N3         1.8350   -0.9010   -0.4450 N.am    1  UNL1       -0.2937
     11  C8         0.5750   -1.4210   -0.8880 C.2     1  UNL1        0.2495
     12  O1         0.4490   -2.6480   -1.0540 O.2     1  UNL1       -0.2699
     13  C9        -0.5470   -0.5390   -1.1430 C.ar    1  UNL1        0.0723
     14  C10       -1.3770   -0.2210   -0.1010 C.ar    1  UNL1       -0.0433
     15  C11       -2.4710    0.6510   -0.2570 C.ar    1  UNL1       -0.0406
     16  C12       -3.3090    0.9590    0.9090 C.3     1  UNL1        0.0171
     17  C13       -4.5070    0.1350    0.9450 C.ar    1  UNL1        0.0736
     18  N4        -4.3990   -1.0700    1.5750 N.ar    1  UNL1       -0.1750
     19  N5        -5.3930   -1.9280    1.6120 N.ar    1  UNL1       -0.2425
     20  C14       -6.5820   -1.7050    1.0460 C.ar    1  UNL1        0.2725
     21  O2        -7.5020   -2.5680    1.1120 O.2     1  UNL1       -0.2658
     22  C15       -6.7620   -0.5040    0.3920 C.ar    1  UNL1        0.0496
     23  C16       -7.9810   -0.2090   -0.1920 C.ar    1  UNL1       -0.0487
     24  C17       -8.1300    1.0120   -0.8130 C.ar    1  UNL1       -0.0610
     25  C18       -7.0910    1.9160   -0.8510 C.ar    1  UNL1       -0.0611
     26  C19       -5.8790    1.6210   -0.2710 C.ar    1  UNL1       -0.0521
     27  C20       -5.7130    0.4110    0.3490 C.ar    1  UNL1        0.0106
     28  C21       -2.6400    1.1510   -1.5240 C.ar    1  UNL1       -0.0555
     29  C22       -1.7940    0.8260   -2.5910 C.ar    1  UNL1       -0.0254
     30  C23       -0.7370   -0.0250   -2.4060 C.ar    1  UNL1        0.1355
     31  F1         0.1080   -0.3580   -3.4380 F       1  UNL1       -0.2047
     32  C24        2.8460   -1.8860   -0.2380 C.3     1  UNL1        0.0510
     33  C25        3.6460   -1.5880    0.9880 C.3     1  UNL1        0.0960
     34 H           7.2721   -1.9352    1.6793 H       1  UNL1        0.2881
     35 H           5.6641   -2.3706    2.0432 H       1  UNL1        0.2881
     36 H           8.6352   -0.0813   -0.6638 H       1  UNL1        0.0316
     37 H           8.9867    0.6455    0.6130 H       1  UNL1        0.0316
     38 H           6.8696    2.4183   -0.0197 H       1  UNL1        0.0316
     39 H           6.6922    1.8418   -1.4051 H       1  UNL1        0.0316
     40 H           4.8268    1.6336    0.6239 H       1  UNL1        0.0726
     41 H           3.3588    1.2366    1.5087 H       1  UNL1        0.0726
     42 H           3.6285    0.5556   -1.3879 H       1  UNL1        0.0317
     43 H           3.1054    2.1312   -0.9103 H       1  UNL1        0.0317
     44 H           1.0938    0.9660   -0.9798 H       1  UNL1        0.0466
     45 H           1.5296    0.8044    0.7041 H       1  UNL1        0.0466
     46 H          -1.1947   -0.6334    0.8273 H       1  UNL1        0.0629
     47 H          -3.5977    1.9884    0.8660 H       1  UNL1        0.0377
     48 H          -2.7389    0.7564    1.7915 H       1  UNL1        0.0377
     49 H          -5.2540   -2.7816    2.0824 H       1  UNL1        0.1921
     50 H          -8.7591   -0.8863   -0.1633 H       1  UNL1        0.0625
     51 H          -9.0310    1.2523   -1.2551 H       1  UNL1        0.0618
     52 H          -7.2236    2.8255   -1.3203 H       1  UNL1        0.0618
     53 H          -5.1048    2.3026   -0.3026 H       1  UNL1        0.0624
     54 H          -3.4266    1.7960   -1.6980 H       1  UNL1        0.0621
     55 H          -1.9682    1.2308   -3.5242 H       1  UNL1        0.0646
     56 H           3.4985   -1.9002   -1.0859 H       1  UNL1        0.0502
     57 H           2.3723   -2.8370   -0.1112 H       1  UNL1        0.0502
     58 H           2.9751   -1.4686    1.8129 H       1  UNL1        0.0742
     59 H           4.3200   -2.4053    1.1384 H       1  UNL1        0.0742
@<TRIPOS>BOND
     1     1     2    1
     2     2     3    2
     3     2     6    1
     4     3     4    1
     5     3     5    1
     6     4     5    1
     7     6     7    1
     8     6    33    1
     9     7     8    1
    10     8     9    1
    11     9    10    1
    12    10    11   am
    13    10    32    1
    14    11    12    2
    15    11    13    1
    16    13    14   ar
    17    13    30   ar
    18    14    15   ar
    19    15    16    1
    20    15    28   ar
    21    16    17    1
    22    17    18   ar
    23    17    27   ar
    24    18    19   ar
    25    19    20   ar
    26    20    21    2
    27    20    22   ar
    28    22    23   ar
    29    22    27   ar
    30    23    24   ar
    31    24    25   ar
    32    25    26   ar
    33    26    27   ar
    34    28    29   ar
    35    29    30   ar
    36    30    31    1
    37    32    33    1
    38     1    34    1
    39     1    35    1
    40     4    36    1
    41     4    37    1
    42     5    38    1
    43     5    39    1
    44     7    40    1
    45     7    41    1
    46     8    42    1
    47     8    43    1
    48     9    44    1
    49     9    45    1
    50    14    46    1
    51    16    47    1
    52    16    48    1
    53    19    49    1
    54    23    50    1
    55    24    51    1
    56    25    52    1
    57    26    53    1
    58    28    54    1
    59    29    55    1
    60    32    56    1
    61    32    57    1
    62    33    58    1
    63    33    59    1
@<TRIPOS>MOLECULE
../data/bude_mols_rdkit_confs2/molecule_92.pdb
 59 63 0 0 0
SMALL
GASTEIGER

@<TRIPOS>ATOM
      1  N1         6.8280    1.3950   -0.1500 N.pl3   1  UNL1       -0.2515
      2  C1         5.9800    0.2770   -0.1610 C.2     1  UNL1        0.2546
      3  C2         6.4040   -0.9750   -0.0860 C.2     1  UNL1        0.0151
      4  C3         7.6310   -1.8460    0.0250 C.3     1  UNL1       -0.0202
      5  C4         6.2620   -2.4470   -0.0380 C.3     1  UNL1       -0.0202
      6  N2         4.5760    0.5020   -0.2580 N.pl3   1  UNL1       -0.2241
      7  C5         3.8650    0.5410    0.9810 C.3     1  UNL1        0.0818
      8  C6         2.8620   -0.5830    1.0930 C.3     1  UNL1       -0.0009
      9  C7         1.9990   -0.5880   -0.1270 C.3     1  UNL1        0.0185
     10  N3         1.8410    0.7270   -0.7260 N.am    1  UNL1       -0.2937
     11  C8         0.6930    1.4810   -0.3820 C.2     1  UNL1        0.2495
     12  O1         0.5410    2.6140   -0.8860 O.2     1  UNL1       -0.2699
     13  C9        -0.3250    1.0000    0.5370 C.ar    1  UNL1        0.0723
     14  C10       -1.4270    0.2710    0.0820 C.ar    1  UNL1       -0.0433
     15  C11       -2.3840   -0.1800    0.9640 C.ar    1  UNL1       -0.0406
     16  C12       -3.5560   -0.9550    0.4780 C.3     1  UNL1        0.0171
     17  C13       -4.6700   -0.0300    0.1420 C.ar    1  UNL1        0.0736
     18  N4        -4.5040    1.3160    0.3110 N.ar    1  UNL1       -0.1750
     19  N5        -5.4400    2.1850    0.0370 N.ar    1  UNL1       -0.2425
     20  C14       -6.6220    1.7500   -0.4320 C.ar    1  UNL1        0.2725
     21  O2        -7.5340    2.5760   -0.7010 O.2     1  UNL1       -0.2658
     22  C15       -6.8640    0.4070   -0.6300 C.ar    1  UNL1        0.0496
     23  C16       -8.0880   -0.0650   -1.1170 C.ar    1  UNL1       -0.0487
     24  C17       -8.2680   -1.4270   -1.2930 C.ar    1  UNL1       -0.0610
     25  C18       -7.2530   -2.3110   -0.9910 C.ar    1  UNL1       -0.0611
     26  C19       -6.0210   -1.8560   -0.5020 C.ar    1  UNL1       -0.0521
     27  C20       -5.8660   -0.4990   -0.3350 C.ar    1  UNL1        0.0106
     28  C21       -2.1960    0.1250    2.3020 C.ar    1  UNL1       -0.0555
     29  C22       -1.1070    0.8450    2.7470 C.ar    1  UNL1       -0.0254
     30  C23       -0.1470    1.2980    1.8710 C.ar    1  UNL1        0.1355
     31  F1         0.9400    2.0140    2.3000 F       1  UNL1       -0.2047
     32  C24        2.7540    1.3490   -1.6550 C.3     1  UNL1        0.0510
     33  C25        4.0900    0.6580   -1.6120 C.3     1  UNL1        0.0960
     34 H           7.8027    1.2729   -0.0840 H       1  UNL1        0.2881
     35 H           6.4483    2.3014   -0.2083 H       1  UNL1        0.2881
     36 H           8.1893   -1.8746    0.9373 H       1  UNL1        0.0316
     37 H           8.5390   -1.9581   -0.5298 H       1  UNL1        0.0316
     38 H           5.9547   -2.9811   -0.9127 H       1  UNL1        0.0316
     39 H           5.7120   -3.1291    0.5761 H       1  UNL1        0.0316
     40 H           3.3472    1.4746    1.0530 H       1  UNL1        0.0726
     41 H           4.5754    0.4305    1.7735 H       1  UNL1        0.0726
     42 H           2.2545   -0.4366    1.9616 H       1  UNL1        0.0317
     43 H           3.3749   -1.5183    1.1769 H       1  UNL1        0.0317
     44 H           1.0314   -0.9564    0.1432 H       1  UNL1        0.0466
     45 H           2.4799   -1.2105   -0.8523 H       1  UNL1        0.0466
     46 H          -1.5248    0.0685   -0.9252 H       1  UNL1        0.0629
     47 H          -3.8754   -1.6321    1.2425 H       1  UNL1        0.0377
     48 H          -3.2772   -1.5034   -0.3974 H       1  UNL1        0.0377
     49 H          -5.2815    3.1472    0.1724 H       1  UNL1        0.1921
     50 H          -8.8487    0.5949   -1.3427 H       1  UNL1        0.0625
     51 H          -9.1675   -1.7829   -1.6525 H       1  UNL1        0.0618
     52 H          -7.4032   -3.3229   -1.1272 H       1  UNL1        0.0618
     53 H          -5.2588   -2.5139   -0.2757 H       1  UNL1        0.0624
     54 H          -2.8948   -0.1976    2.9895 H       1  UNL1        0.0621
     55 H          -1.0103    1.0476    3.7543 H       1  UNL1        0.0646
     56 H           2.8798    2.3783   -1.3913 H       1  UNL1        0.0502
     57 H           2.3526    1.2716   -2.6438 H       1  UNL1        0.0502
     58 H           3.9929   -0.3098   -2.0579 H       1  UNL1        0.0742
     59 H           4.7921    1.2622   -2.1477 H       1  UNL1        0.0742
@<TRIPOS>BOND
     1     1     2    1
     2     2     3    2
     3     2     6    1
     4     3     4    1
     5     3     5    1
     6     4     5    1
     7     6     7    1
     8     6    33    1
     9     7     8    1
    10     8     9    1
    11     9    10    1
    12    10    11   am
    13    10    32    1
    14    11    12    2
    15    11    13    1
    16    13    14   ar
    17    13    30   ar
    18    14    15   ar
    19    15    16    1
    20    15    28   ar
    21    16    17    1
    22    17    18   ar
    23    17    27   ar
    24    18    19   ar
    25    19    20   ar
    26    20    21    2
    27    20    22   ar
    28    22    23   ar
    29    22    27   ar
    30    23    24   ar
    31    24    25   ar
    32    25    26   ar
    33    26    27   ar
    34    28    29   ar
    35    29    30   ar
    36    30    31    1
    37    32    33    1
    38     1    34    1
    39     1    35    1
    40     4    36    1
    41     4    37    1
    42     5    38    1
    43     5    39    1
    44     7    40    1
    45     7    41    1
    46     8    42    1
    47     8    43    1
    48     9    44    1
    49     9    45    1
    50    14    46    1
    51    16    47    1
    52    16    48    1
    53    19    49    1
    54    23    50    1
    55    24    51    1
    56    25    52    1
    57    26    53    1
    58    28    54    1
    59    29    55    1
    60    32    56    1
    61    32    57    1
    62    33    58    1
    63    33    59    1
@<TRIPOS>MOLECULE
../data/bude_mols_rdkit_confs2/molecule_92.pdb
 59 63 0 0 0
SMALL
GASTEIGER

@<TRIPOS>ATOM
      1  N1         6.6020    1.0560   -1.2710 N.pl3   1  UNL1       -0.2515
      2  C1         5.6270    0.6480   -0.3400 C.2     1  UNL1        0.2546
      3  C2         5.9640   -0.2120    0.5980 C.2     1  UNL1        0.0151
      4  C3         6.9620   -1.0840    1.2690 C.3     1  UNL1       -0.0202
      5  C4         5.6000   -1.0580    1.8150 C.3     1  UNL1       -0.0202
      6  N2         4.3060    1.1680   -0.4290 N.pl3   1  UNL1       -0.2241
      7  C5         3.5010    0.6160   -1.5290 C.3     1  UNL1        0.0818
      8  C6         2.8200   -0.6100   -0.9140 C.3     1  UNL1       -0.0009
      9  C7         2.0270   -0.1230    0.2750 C.3     1  UNL1        0.0185
     10  N3         1.6680    1.2850    0.1330 N.am    1  UNL1       -0.2937
     11  C8         0.3730    1.5340   -0.3880 C.2     1  UNL1        0.2495
     12  O1        -0.0670    2.6810   -0.5710 O.2     1  UNL1       -0.2699
     13  C9        -0.4960    0.3970   -0.7310 C.ar    1  UNL1        0.0723
     14  C10       -1.3320   -0.0890    0.2360 C.ar    1  UNL1       -0.0433
     15  C11       -2.1560   -1.1620   -0.0740 C.ar    1  UNL1       -0.0406
     16  C12       -3.0330   -1.6750    1.0090 C.3     1  UNL1        0.0171
     17  C13       -4.1610   -0.7470    1.2540 C.ar    1  UNL1        0.0736
     18  N4        -4.0320    0.1910    2.2210 N.ar    1  UNL1       -0.1750
     19  N5        -4.9720    1.0830    2.4540 N.ar    1  UNL1       -0.2425
     20  C14       -6.1140    1.1170    1.7490 C.ar    1  UNL1        0.2725
     21  O2        -7.0060    1.9930    1.9960 O.2     1  UNL1       -0.2658
     22  C15       -6.3310    0.1900    0.7370 C.ar    1  UNL1        0.0496
     23  C16       -7.5100    0.2220    0.0280 C.ar    1  UNL1       -0.0487
     24  C17       -7.6860   -0.7380   -0.9600 C.ar    1  UNL1       -0.0610
     25  C18       -6.7260   -1.6850   -1.2260 C.ar    1  UNL1       -0.0611
     26  C19       -5.5600   -1.6590   -0.4740 C.ar    1  UNL1       -0.0521
     27  C20       -5.3150   -0.7370    0.5210 C.ar    1  UNL1        0.0106
     28  C21       -2.1250   -1.7080   -1.3110 C.ar    1  UNL1       -0.0555
     29  C22       -1.2580   -1.1920   -2.2890 C.ar    1  UNL1       -0.0254
     30  C23       -0.4370   -0.1310   -1.9980 C.ar    1  UNL1        0.1355
     31  F1         0.4180    0.4080   -2.9000 F       1  UNL1       -0.2047
     32  C24        2.4560    2.4580    0.4590 C.3     1  UNL1        0.0510
     33  C25        3.9130    2.1570    0.5530 C.3     1  UNL1        0.0960
     34 H           7.5176    0.6988   -1.2134 H       1  UNL1        0.2881
     35 H           6.3679    1.6984   -1.9794 H       1  UNL1        0.2881
     36 H           7.7628   -0.6415    1.8239 H       1  UNL1        0.0316
     37 H           7.6137   -1.8633    0.9331 H       1  UNL1        0.0316
     38 H           4.9615   -1.9095    1.7048 H       1  UNL1        0.0316
     39 H           5.1700   -0.8624    2.7751 H       1  UNL1        0.0316
     40 H           4.1246    0.3319   -2.3508 H       1  UNL1        0.0726
     41 H           2.7993    1.3231   -1.9196 H       1  UNL1        0.0726
     42 H           3.5559   -1.3201   -0.5992 H       1  UNL1        0.0317
     43 H           2.1836   -1.0916   -1.6267 H       1  UNL1        0.0317
     44 H           2.6157   -0.2450    1.1601 H       1  UNL1        0.0466
     45 H           1.1258   -0.6965    0.3375 H       1  UNL1        0.0466
     46 H          -1.3498    0.3336    1.1773 H       1  UNL1        0.0629
     47 H          -2.4598   -1.7757    1.9069 H       1  UNL1        0.0377
     48 H          -3.4272   -2.6242    0.7114 H       1  UNL1        0.0377
     49 H          -4.8330    1.7463    3.1681 H       1  UNL1        0.1921
     50 H          -8.2343    0.9309    0.2227 H       1  UNL1        0.0625
     51 H          -8.5601   -0.7404   -1.5086 H       1  UNL1        0.0618
     52 H          -6.8680   -2.3938   -1.9625 H       1  UNL1        0.0618
     53 H          -4.8369   -2.3686   -0.6704 H       1  UNL1        0.0624
     54 H          -2.7396   -2.5056   -1.5371 H       1  UNL1        0.0621
     55 H          -1.2383   -1.6129   -3.2311 H       1  UNL1        0.0646
     56 H           2.1237    2.8443    1.3999 H       1  UNL1        0.0502
     57 H           2.3206    3.1704   -0.3278 H       1  UNL1        0.0502
     58 H           4.4672    3.0566    0.3840 H       1  UNL1        0.0742
     59 H           4.1170    1.7669    1.5283 H       1  UNL1        0.0742
@<TRIPOS>BOND
     1     1     2    1
     2     2     3    2
     3     2     6    1
     4     3     4    1
     5     3     5    1
     6     4     5    1
     7     6     7    1
     8     6    33    1
     9     7     8    1
    10     8     9    1
    11     9    10    1
    12    10    11   am
    13    10    32    1
    14    11    12    2
    15    11    13    1
    16    13    14   ar
    17    13    30   ar
    18    14    15   ar
    19    15    16    1
    20    15    28   ar
    21    16    17    1
    22    17    18   ar
    23    17    27   ar
    24    18    19   ar
    25    19    20   ar
    26    20    21    2
    27    20    22   ar
    28    22    23   ar
    29    22    27   ar
    30    23    24   ar
    31    24    25   ar
    32    25    26   ar
    33    26    27   ar
    34    28    29   ar
    35    29    30   ar
    36    30    31    1
    37    32    33    1
    38     1    34    1
    39     1    35    1
    40     4    36    1
    41     4    37    1
    42     5    38    1
    43     5    39    1
    44     7    40    1
    45     7    41    1
    46     8    42    1
    47     8    43    1
    48     9    44    1
    49     9    45    1
    50    14    46    1
    51    16    47    1
    52    16    48    1
    53    19    49    1
    54    23    50    1
    55    24    51    1
    56    25    52    1
    57    26    53    1
    58    28    54    1
    59    29    55    1
    60    32    56    1
    61    32    57    1
    62    33    58    1
    63    33    59    1
@<TRIPOS>MOLECULE
../data/bude_mols_rdkit_confs2/molecule_92.pdb
 59 63 0 0 0
SMALL
GASTEIGER

@<TRIPOS>ATOM
      1  N1         6.3160   -2.1830   -0.4600 N.pl3   1  UNL1       -0.2515
      2  C1         5.8520   -0.8480   -0.3520 C.2     1  UNL1        0.2546
      3  C2         6.6890    0.1680   -0.4370 C.2     1  UNL1        0.0151
      4  C3         6.9540    1.6370   -0.4270 C.3     1  UNL1       -0.0202
      5  C4         8.0790    0.7200   -0.6140 C.3     1  UNL1       -0.0202
      6  N2         4.4660   -0.6320   -0.1510 N.pl3   1  UNL1       -0.2241
      7  C5         4.1620    0.4500    0.7430 C.3     1  UNL1        0.0818
      8  C6         2.7760    0.3380    1.3300 C.3     1  UNL1       -0.0009
      9  C7         1.7290    0.7380    0.3130 C.3     1  UNL1        0.0185
     10  N3         1.5290   -0.4140   -0.5640 N.am    1  UNL1       -0.2937
     11  C8         0.3180   -1.1110   -0.4060 C.2     1  UNL1        0.2495
     12  O1         0.0660   -2.1090   -1.1160 O.2     1  UNL1       -0.2699
     13  C9        -0.6460   -0.6610    0.5950 C.ar    1  UNL1        0.0723
     14  C10       -1.6190    0.2800    0.2460 C.ar    1  UNL1       -0.0433
     15  C11       -2.5590    0.7620    1.1160 C.ar    1  UNL1       -0.0406
     16  C12       -3.5600    1.7390    0.6830 C.3     1  UNL1        0.0171
     17  C13       -4.9390    1.2920    0.6180 C.ar    1  UNL1        0.0736
     18  N4        -5.7390    1.5610    1.7020 N.ar    1  UNL1       -0.1750
     19  N5        -6.9870    1.1740    1.7830 N.ar    1  UNL1       -0.2425
     20  C14       -7.6100    0.4810    0.8230 C.ar    1  UNL1        0.2725
     21  O2        -8.7950    0.0880    0.8500 O.2     1  UNL1       -0.2658
     22  C15       -6.8610    0.1710   -0.3100 C.ar    1  UNL1        0.0496
     23  C16       -7.4140   -0.5280   -1.3590 C.ar    1  UNL1       -0.0487
     24  C17       -6.6650   -0.8220   -2.4920 C.ar    1  UNL1       -0.0610
     25  C18       -5.3490   -0.3980   -2.5490 C.ar    1  UNL1       -0.0611
     26  C19       -4.7600    0.3060   -1.5150 C.ar    1  UNL1       -0.0521
     27  C20       -5.5210    0.5860   -0.3990 C.ar    1  UNL1        0.0106
     28  C21       -2.5360    0.2830    2.4180 C.ar    1  UNL1       -0.0555
     29  C22       -1.5850   -0.6420    2.7730 C.ar    1  UNL1       -0.0254
     30  C23       -0.6460   -1.1170    1.8830 C.ar    1  UNL1        0.1355
     31  F1         0.2950   -2.0370    2.2500 F       1  UNL1       -0.2047
     32  C24        2.4610   -0.8810   -1.5630 C.3     1  UNL1        0.0510
     33  C25        3.6140   -1.5330   -0.8740 C.3     1  UNL1        0.0960
     34 H           7.2741   -2.3614   -0.5999 H       1  UNL1        0.2881
     35 H           5.6802   -2.9319   -0.3951 H       1  UNL1        0.2881
     36 H           6.8629    2.1874    0.4860 H       1  UNL1        0.0316
     37 H           6.5686    2.4718   -0.9743 H       1  UNL1        0.0316
     38 H           8.5623    0.6548   -1.5664 H       1  UNL1        0.0316
     39 H           9.0188    0.5690   -0.1253 H       1  UNL1        0.0316
     40 H           4.2337    1.3716    0.2042 H       1  UNL1        0.0726
     41 H           4.8628    0.4131    1.5507 H       1  UNL1        0.0726
     42 H           2.7023    0.9818    2.1814 H       1  UNL1        0.0317
     43 H           2.6056   -0.6787    1.6167 H       1  UNL1        0.0317
     44 H           2.0696    1.5784   -0.2550 H       1  UNL1        0.0466
     45 H           0.8147    1.0176    0.7934 H       1  UNL1        0.0466
     46 H          -1.6291    0.6317   -0.7242 H       1  UNL1        0.0629
     47 H          -3.2830    2.0713   -0.2956 H       1  UNL1        0.0377
     48 H          -3.5511    2.4961    1.4390 H       1  UNL1        0.0377
     49 H          -7.4945    1.4054    2.5942 H       1  UNL1        0.1921
     50 H          -8.3969   -0.8375   -1.3034 H       1  UNL1        0.0625
     51 H          -7.0825   -1.3468   -3.2764 H       1  UNL1        0.0618
     52 H          -4.7900   -0.6139   -3.3892 H       1  UNL1        0.0618
     53 H          -3.7769    0.6139   -1.5765 H       1  UNL1        0.0624
     54 H          -3.2243    0.6174    3.1104 H       1  UNL1        0.0621
     55 H          -1.5730   -0.9947    3.7428 H       1  UNL1        0.0646
     56 H           2.8102   -0.0535   -2.1446 H       1  UNL1        0.0502
     57 H           1.9793   -1.5828   -2.2114 H       1  UNL1        0.0502
     58 H           3.2264   -2.2524   -0.1832 H       1  UNL1        0.0742
     59 H           4.2176   -1.9705   -1.6416 H       1  UNL1        0.0742
@<TRIPOS>BOND
     1     1     2    1
     2     2     3    2
     3     2     6    1
     4     3     4    1
     5     3     5    1
     6     4     5    1
     7     6     7    1
     8     6    33    1
     9     7     8    1
    10     8     9    1
    11     9    10    1
    12    10    11   am
    13    10    32    1
    14    11    12    2
    15    11    13    1
    16    13    14   ar
    17    13    30   ar
    18    14    15   ar
    19    15    16    1
    20    15    28   ar
    21    16    17    1
    22    17    18   ar
    23    17    27   ar
    24    18    19   ar
    25    19    20   ar
    26    20    21    2
    27    20    22   ar
    28    22    23   ar
    29    22    27   ar
    30    23    24   ar
    31    24    25   ar
    32    25    26   ar
    33    26    27   ar
    34    28    29   ar
    35    29    30   ar
    36    30    31    1
    37    32    33    1
    38     1    34    1
    39     1    35    1
    40     4    36    1
    41     4    37    1
    42     5    38    1
    43     5    39    1
    44     7    40    1
    45     7    41    1
    46     8    42    1
    47     8    43    1
    48     9    44    1
    49     9    45    1
    50    14    46    1
    51    16    47    1
    52    16    48    1
    53    19    49    1
    54    23    50    1
    55    24    51    1
    56    25    52    1
    57    26    53    1
    58    28    54    1
    59    29    55    1
    60    32    56    1
    61    32    57    1
    62    33    58    1
    63    33    59    1
@<TRIPOS>MOLECULE
../data/bude_mols_rdkit_confs2/molecule_92.pdb
 59 63 0 0 0
SMALL
GASTEIGER

@<TRIPOS>ATOM
      1  N1        -6.1350    0.8680   -0.6500 N.pl3   1  UNL1       -0.2515
      2  C1        -4.8980    0.8210    0.0610 C.2     1  UNL1        0.2546
      3  C2        -4.7220    1.6160    1.1110 C.2     1  UNL1        0.0151
      4  C3        -3.8690    2.0860    2.1960 C.3     1  UNL1       -0.0202
      5  C4        -5.2130    2.6550    2.0370 C.3     1  UNL1       -0.0202
      6  N2        -3.8920   -0.0780   -0.3800 N.pl3   1  UNL1       -0.2241
      7  C5        -3.3780   -1.0290    0.5800 C.3     1  UNL1        0.0818
      8  C6        -1.9440   -0.8070    0.9550 C.3     1  UNL1       -0.0009
      9  C7        -1.1520   -0.4360   -0.2680 C.3     1  UNL1        0.0185
     10  N3        -1.5270   -1.2180   -1.4210 N.am    1  UNL1       -0.2937
     11  C8        -0.6110   -2.2380   -1.7490 C.2     1  UNL1        0.2495
     12  O1        -0.8520   -2.9720   -2.7380 O.2     1  UNL1       -0.2699
     13  C9         0.6080   -2.4850   -0.9930 C.ar    1  UNL1        0.0723
     14  C10        1.7760   -1.8340   -1.3410 C.ar    1  UNL1       -0.0433
     15  C11        2.9640   -2.0020   -0.6910 C.ar    1  UNL1       -0.0406
     16  C12        4.1730   -1.2850   -1.0800 C.3     1  UNL1        0.0171
     17  C13        4.6670   -0.2660   -0.1720 C.ar    1  UNL1        0.0736
     18  N4         5.6710   -0.6340    0.6780 N.ar    1  UNL1       -0.1750
     19  N5         6.1950    0.1530    1.5720 N.ar    1  UNL1       -0.2425
     20  C14        5.7730    1.4200    1.7260 C.ar    1  UNL1        0.2725
     21  O2         6.2850    2.1700    2.5920 O.2     1  UNL1       -0.2658
     22  C15        4.7590    1.8580    0.8960 C.ar    1  UNL1        0.0496
     23  C16        4.2840    3.1530    0.9950 C.ar    1  UNL1       -0.0487
     24  C17        3.2880    3.6000    0.1720 C.ar    1  UNL1       -0.0610
     25  C18        2.7550    2.7460   -0.7640 C.ar    1  UNL1       -0.0611
     26  C19        3.2020    1.4480   -0.8920 C.ar    1  UNL1       -0.0521
     27  C20        4.1940    1.0080   -0.0690 C.ar    1  UNL1        0.0106
     28  C21        2.9430   -2.9010    0.3880 C.ar    1  UNL1       -0.0555
     29  C22        1.7990   -3.5610    0.7550 C.ar    1  UNL1       -0.0254
     30  C23        0.6250   -3.3570    0.0670 C.ar    1  UNL1        0.1355
     31  F1        -0.5080   -4.0220    0.4400 F       1  UNL1       -0.2047
     32  C24       -2.7100   -1.0790   -2.2660 C.3     1  UNL1        0.0510
     33  C25       -3.5230    0.0990   -1.7730 C.3     1  UNL1        0.0960
     34 H          -6.8460    1.4845   -0.3607 H       1  UNL1        0.2881
     35 H          -6.2771    0.2839   -1.4297 H       1  UNL1        0.2881
     36 H          -3.0079    2.6824    1.9775 H       1  UNL1        0.0316
     37 H          -3.3410    1.6135    2.9978 H       1  UNL1        0.0316
     38 H          -5.9811    2.4233    2.7450 H       1  UNL1        0.0316
     39 H          -5.6130    3.6416    1.9295 H       1  UNL1        0.0316
     40 H          -3.4679   -2.0099    0.1622 H       1  UNL1        0.0726
     41 H          -3.9529   -0.9058    1.4740 H       1  UNL1        0.0726
     42 H          -1.5442   -1.7044    1.3789 H       1  UNL1        0.0317
     43 H          -1.8836   -0.0137    1.6705 H       1  UNL1        0.0317
     44 H          -0.1133   -0.5958   -0.0669 H       1  UNL1        0.0466
     45 H          -1.3536    0.5912   -0.4894 H       1  UNL1        0.0466
     46 H           1.7483   -1.1817   -2.1403 H       1  UNL1        0.0629
     47 H           3.9766   -0.8104   -2.0187 H       1  UNL1        0.0377
     48 H           4.9398   -2.0310   -1.0971 H       1  UNL1        0.0377
     49 H           6.9168   -0.1871    2.1486 H       1  UNL1        0.1921
     50 H           4.6867    3.7905    1.6996 H       1  UNL1        0.0625
     51 H           2.9401    4.5682    0.2526 H       1  UNL1        0.0618
     52 H           2.0032    3.0840   -1.3850 H       1  UNL1        0.0618
     53 H           2.7914    0.8197   -1.6003 H       1  UNL1        0.0624
     54 H           3.8120   -3.0691    0.9186 H       1  UNL1        0.0621
     55 H           1.8184   -4.2154    1.5528 H       1  UNL1        0.0646
     56 H          -3.2986   -1.9709   -2.2110 H       1  UNL1        0.0502
     57 H          -2.4154   -0.9189   -3.2821 H       1  UNL1        0.0502
     58 H          -2.9422    0.9922   -1.8716 H       1  UNL1        0.0742
     59 H          -4.4157    0.1696   -2.3586 H       1  UNL1        0.0742
@<TRIPOS>BOND
     1     1     2    1
     2     2     3    2
     3     2     6    1
     4     3     4    1
     5     3     5    1
     6     4     5    1
     7     6     7    1
     8     6    33    1
     9     7     8    1
    10     8     9    1
    11     9    10    1
    12    10    11   am
    13    10    32    1
    14    11    12    2
    15    11    13    1
    16    13    14   ar
    17    13    30   ar
    18    14    15   ar
    19    15    16    1
    20    15    28   ar
    21    16    17    1
    22    17    18   ar
    23    17    27   ar
    24    18    19   ar
    25    19    20   ar
    26    20    21    2
    27    20    22   ar
    28    22    23   ar
    29    22    27   ar
    30    23    24   ar
    31    24    25   ar
    32    25    26   ar
    33    26    27   ar
    34    28    29   ar
    35    29    30   ar
    36    30    31    1
    37    32    33    1
    38     1    34    1
    39     1    35    1
    40     4    36    1
    41     4    37    1
    42     5    38    1
    43     5    39    1
    44     7    40    1
    45     7    41    1
    46     8    42    1
    47     8    43    1
    48     9    44    1
    49     9    45    1
    50    14    46    1
    51    16    47    1
    52    16    48    1
    53    19    49    1
    54    23    50    1
    55    24    51    1
    56    25    52    1
    57    26    53    1
    58    28    54    1
    59    29    55    1
    60    32    56    1
    61    32    57    1
    62    33    58    1
    63    33    59    1
@<TRIPOS>MOLECULE
../data/bude_mols_rdkit_confs2/molecule_92.pdb
 59 63 0 0 0
SMALL
GASTEIGER

@<TRIPOS>ATOM
      1  N1        -5.8340   -1.3930    0.4570 N.pl3   1  UNL1       -0.2515
      2  C1        -5.5070   -0.0810    0.0250 C.2     1  UNL1        0.2546
      3  C2        -6.4830    0.7440   -0.3230 C.2     1  UNL1        0.0151
      4  C3        -7.9470    1.0470   -0.5220 C.3     1  UNL1       -0.0202
      5  C4        -6.9790    2.0780   -0.8160 C.3     1  UNL1       -0.0202
      6  N2        -4.1640    0.3680   -0.0450 N.pl3   1  UNL1       -0.2241
      7  C5        -3.8180    1.4730    0.7890 C.3     1  UNL1        0.0818
      8  C6        -3.0660    1.0480    2.0100 C.3     1  UNL1       -0.0009
      9  C7        -2.4870   -0.3390    1.9200 C.3     1  UNL1        0.0185
     10  N3        -1.6140   -0.5370    0.7950 N.am    1  UNL1       -0.2937
     11  C8        -0.3360   -1.0470    1.1010 C.2     1  UNL1        0.2495
     12  O1        -0.0460   -1.2850    2.2940 O.2     1  UNL1       -0.2699
     13  C9         0.6370   -1.2960    0.0460 C.ar    1  UNL1        0.0723
     14  C10        1.5470   -0.3250   -0.3880 C.ar    1  UNL1       -0.0433
     15  C11        2.4660   -0.5060   -1.3650 C.ar    1  UNL1       -0.0406
     16  C12        3.4290    0.5390   -1.7950 C.3     1  UNL1        0.0171
     17  C13        4.8210    0.2750   -1.4510 C.ar    1  UNL1        0.0736
     18  N4         5.6070   -0.3150   -2.4140 N.ar    1  UNL1       -0.1750
     19  N5         6.8680   -0.6410   -2.1930 N.ar    1  UNL1       -0.2425
     20  C14        7.3950   -0.3880   -0.9940 C.ar    1  UNL1        0.2725
     21  O2         8.5910   -0.7050   -0.8030 O.2     1  UNL1       -0.2658
     22  C15        6.6830    0.1990    0.0250 C.ar    1  UNL1        0.0496
     23  C16        7.2420    0.4670    1.2520 C.ar    1  UNL1       -0.0487
     24  C17        6.4860    1.0740    2.2390 C.ar    1  UNL1       -0.0610
     25  C18        5.1630    1.4040    1.9680 C.ar    1  UNL1       -0.0611
     26  C19        4.5830    1.1440    0.7430 C.ar    1  UNL1       -0.0521
     27  C20        5.3540    0.5370   -0.2270 C.ar    1  UNL1        0.0106
     28  C21        2.4900   -1.7710   -1.9770 C.ar    1  UNL1       -0.0555
     29  C22        1.6190   -2.7580   -1.5880 C.ar    1  UNL1       -0.0254
     30  C23        0.7030   -2.5200   -0.5870 C.ar    1  UNL1        0.1355
     31  F1        -0.1290   -3.5300   -0.2460 F       1  UNL1       -0.2047
     32  C24       -1.8650   -0.2870   -0.5880 C.3     1  UNL1        0.0510
     33  C25       -3.3140   -0.3590   -0.9630 C.3     1  UNL1        0.0960
     34 H          -6.7755   -1.6781    0.4958 H       1  UNL1        0.2881
     35 H          -5.1193   -2.0178    0.7178 H       1  UNL1        0.2881
     36 H          -8.5892    1.1477    0.3279 H       1  UNL1        0.0316
     37 H          -8.7396    0.5847   -1.0724 H       1  UNL1        0.0316
     38 H          -6.8035    2.3678   -1.8309 H       1  UNL1        0.0316
     39 H          -6.8443    3.0906   -0.4977 H       1  UNL1        0.0316
     40 H          -4.7159    1.9692    1.0931 H       1  UNL1        0.0726
     41 H          -3.1843    2.1242    0.2240 H       1  UNL1        0.0726
     42 H          -3.7342    1.0803    2.8451 H       1  UNL1        0.0317
     43 H          -2.2415    1.7217    2.1162 H       1  UNL1        0.0317
     44 H          -3.2949   -1.0366    1.8456 H       1  UNL1        0.0466
     45 H          -1.8958   -0.4850    2.7998 H       1  UNL1        0.0466
     46 H           1.5148    0.5985    0.0716 H       1  UNL1        0.0629
     47 H           3.1433    1.4624   -1.3360 H       1  UNL1        0.0377
     48 H           3.3852    0.5636   -2.8638 H       1  UNL1        0.0377
     49 H           7.4084   -1.0626   -2.8997 H       1  UNL1        0.1921
     50 H           8.2256    0.2154    1.4369 H       1  UNL1        0.0625
     51 H           6.8981    1.2788    3.1627 H       1  UNL1        0.0618
     52 H           4.5984    1.8564    2.7040 H       1  UNL1        0.0618
     53 H           3.5997    1.3966    0.5576 H       1  UNL1        0.0624
     54 H           3.1714   -1.9603   -2.7286 H       1  UNL1        0.0621
     55 H           1.6505   -3.6817   -2.0471 H       1  UNL1        0.0646
     56 H          -1.3310   -1.0134   -1.1643 H       1  UNL1        0.0502
     57 H          -1.5411    0.7131   -0.7874 H       1  UNL1        0.0502
     58 H          -3.4353    0.0543   -1.9425 H       1  UNL1        0.0742
     59 H          -3.6064   -1.3877   -0.9293 H       1  UNL1        0.0742
@<TRIPOS>BOND
     1     1     2    1
     2     2     3    2
     3     2     6    1
     4     3     4    1
     5     3     5    1
     6     4     5    1
     7     6     7    1
     8     6    33    1
     9     7     8    1
    10     8     9    1
    11     9    10    1
    12    10    11   am
    13    10    32    1
    14    11    12    2
    15    11    13    1
    16    13    14   ar
    17    13    30   ar
    18    14    15   ar
    19    15    16    1
    20    15    28   ar
    21    16    17    1
    22    17    18   ar
    23    17    27   ar
    24    18    19   ar
    25    19    20   ar
    26    20    21    2
    27    20    22   ar
    28    22    23   ar
    29    22    27   ar
    30    23    24   ar
    31    24    25   ar
    32    25    26   ar
    33    26    27   ar
    34    28    29   ar
    35    29    30   ar
    36    30    31    1
    37    32    33    1
    38     1    34    1
    39     1    35    1
    40     4    36    1
    41     4    37    1
    42     5    38    1
    43     5    39    1
    44     7    40    1
    45     7    41    1
    46     8    42    1
    47     8    43    1
    48     9    44    1
    49     9    45    1
    50    14    46    1
    51    16    47    1
    52    16    48    1
    53    19    49    1
    54    23    50    1
    55    24    51    1
    56    25    52    1
    57    26    53    1
    58    28    54    1
    59    29    55    1
    60    32    56    1
    61    32    57    1
    62    33    58    1
    63    33    59    1
@<TRIPOS>MOLECULE
../data/bude_mols_rdkit_confs2/molecule_92.pdb
 59 63 0 0 0
SMALL
GASTEIGER

@<TRIPOS>ATOM
      1  N1        -6.3420   -2.3710    0.6700 N.pl3   1  UNL1       -0.2515
      2  C1        -5.7590   -1.1430    0.2590 C.2     1  UNL1        0.2546
      3  C2        -6.4630   -0.2880   -0.4820 C.2     1  UNL1        0.0151
      4  C3        -6.6780    0.9670   -1.2340 C.3     1  UNL1       -0.0202
      5  C4        -7.7730    0.0310   -1.1870 C.3     1  UNL1       -0.0202
      6  N2        -4.4420   -0.8050    0.6190 N.pl3   1  UNL1       -0.2241
      7  C5        -3.9940    0.5540    0.5990 C.3     1  UNL1        0.0818
      8  C6        -3.2140    0.9270   -0.6150 C.3     1  UNL1       -0.0009
      9  C7        -1.8740    0.2980   -0.7260 C.3     1  UNL1        0.0185
     10  N3        -1.7200   -0.9400   -0.0290 N.am    1  UNL1       -0.2937
     11  C8        -0.6160   -1.0860    0.8470 C.2     1  UNL1        0.2495
     12  O1        -0.4630   -2.1640    1.4690 O.2     1  UNL1       -0.2699
     13  C9         0.3020    0.0410    0.9860 C.ar    1  UNL1        0.0723
     14  C10        1.3820    0.1070    0.1270 C.ar    1  UNL1       -0.0433
     15  C11        2.2960    1.1450    0.1960 C.ar    1  UNL1       -0.0406
     16  C12        3.4600    1.2110   -0.7350 C.3     1  UNL1        0.0171
     17  C13        4.6250    0.4790   -0.1090 C.ar    1  UNL1        0.0736
     18  N4         4.5100   -0.0930    1.0870 N.ar    1  UNL1       -0.1750
     19  N5         5.4950   -0.7280    1.6490 N.ar    1  UNL1       -0.2425
     20  C14        6.6770   -0.8330    1.0400 C.ar    1  UNL1        0.2725
     21  O2         7.6350   -1.4440    1.5740 O.2     1  UNL1       -0.2658
     22  C15        6.8790   -0.2680   -0.2010 C.ar    1  UNL1        0.0496
     23  C16        8.0890   -0.3590   -0.8570 C.ar    1  UNL1       -0.0487
     24  C17        8.1800    0.2420   -2.0930 C.ar    1  UNL1       -0.0610
     25  C18        7.1480    0.9150   -2.6950 C.ar    1  UNL1       -0.0611
     26  C19        5.9430    1.0050   -2.0430 C.ar    1  UNL1       -0.0521
     27  C20        5.8120    0.4090   -0.7880 C.ar    1  UNL1        0.0106
     28  C21        2.0660    2.1000    1.1640 C.ar    1  UNL1       -0.0555
     29  C22        0.9950    2.0550    2.0320 C.ar    1  UNL1       -0.0254
     30  C23        0.0940    1.0010    1.9390 C.ar    1  UNL1        0.1355
     31  F1        -0.9760    0.8960    2.7580 F       1  UNL1       -0.2047
     32  C24       -2.5850   -2.0970   -0.1150 C.3     1  UNL1        0.0510
     33  C25       -3.6080   -1.9550    1.0040 C.3     1  UNL1        0.0960
     34 H          -7.2654   -2.5896    0.4079 H       1  UNL1        0.2881
     35 H          -5.8227   -3.0037    1.2171 H       1  UNL1        0.2881
     36 H          -6.1585    1.1249   -2.1560 H       1  UNL1        0.0316
     37 H          -6.5791    2.0036   -0.9880 H       1  UNL1        0.0316
     38 H          -8.6478    0.2585   -0.6143 H       1  UNL1        0.0316
     39 H          -8.3801   -0.4621   -1.9172 H       1  UNL1        0.0316
     40 H          -3.3753    0.7151    1.4570 H       1  UNL1        0.0726
     41 H          -4.8722    1.1652    0.5976 H       1  UNL1        0.0726
     42 H          -3.0814    1.9887   -0.6094 H       1  UNL1        0.0317
     43 H          -3.7787    0.5699   -1.4508 H       1  UNL1        0.0317
     44 H          -1.1525    0.9870   -0.3391 H       1  UNL1        0.0466
     45 H          -1.7386    0.0721   -1.7631 H       1  UNL1        0.0466
     46 H           1.5103   -0.6328   -0.5810 H       1  UNL1        0.0629
     47 H           3.7269    2.2331   -0.9055 H       1  UNL1        0.0377
     48 H           3.2047    0.7571   -1.6697 H       1  UNL1        0.0377
     49 H           5.3670   -1.1367    2.5355 H       1  UNL1        0.1921
     50 H           8.8915   -0.8559   -0.4397 H       1  UNL1        0.0625
     51 H           9.0790    0.1822   -2.5963 H       1  UNL1        0.0618
     52 H           7.2750    1.3471   -3.6235 H       1  UNL1        0.0618
     53 H           5.1488    1.5042   -2.4731 H       1  UNL1        0.0624
     54 H           2.7282    2.8876    1.2429 H       1  UNL1        0.0621
     55 H           0.8646    2.7938    2.7407 H       1  UNL1        0.0646
     56 H          -2.0166   -2.9942    0.0152 H       1  UNL1        0.0502
     57 H          -3.0621   -2.1537   -1.0711 H       1  UNL1        0.0502
     58 H          -4.2032   -2.8406    1.0832 H       1  UNL1        0.0742
     59 H          -3.1422   -1.8108    1.9565 H       1  UNL1        0.0742
@<TRIPOS>BOND
     1     1     2    1
     2     2     3    2
     3     2     6    1
     4     3     4    1
     5     3     5    1
     6     4     5    1
     7     6     7    1
     8     6    33    1
     9     7     8    1
    10     8     9    1
    11     9    10    1
    12    10    11   am
    13    10    32    1
    14    11    12    2
    15    11    13    1
    16    13    14   ar
    17    13    30   ar
    18    14    15   ar
    19    15    16    1
    20    15    28   ar
    21    16    17    1
    22    17    18   ar
    23    17    27   ar
    24    18    19   ar
    25    19    20   ar
    26    20    21    2
    27    20    22   ar
    28    22    23   ar
    29    22    27   ar
    30    23    24   ar
    31    24    25   ar
    32    25    26   ar
    33    26    27   ar
    34    28    29   ar
    35    29    30   ar
    36    30    31    1
    37    32    33    1
    38     1    34    1
    39     1    35    1
    40     4    36    1
    41     4    37    1
    42     5    38    1
    43     5    39    1
    44     7    40    1
    45     7    41    1
    46     8    42    1
    47     8    43    1
    48     9    44    1
    49     9    45    1
    50    14    46    1
    51    16    47    1
    52    16    48    1
    53    19    49    1
    54    23    50    1
    55    24    51    1
    56    25    52    1
    57    26    53    1
    58    28    54    1
    59    29    55    1
    60    32    56    1
    61    32    57    1
    62    33    58    1
    63    33    59    1
@<TRIPOS>MOLECULE
../data/bude_mols_rdkit_confs2/molecule_92.pdb
 59 63 0 0 0
SMALL
GASTEIGER

@<TRIPOS>ATOM
      1  N1        -6.6720   -1.1270    1.0330 N.pl3   1  UNL1       -0.2515
      2  C1        -6.0410    0.0560    0.4950 C.2     1  UNL1        0.2546
      3  C2        -6.8180    1.0650    0.1820 C.2     1  UNL1        0.0151
      4  C3        -8.1790    1.6300    0.1120 C.3     1  UNL1       -0.0202
      5  C4        -7.0630    2.4520   -0.3440 C.3     1  UNL1       -0.0202
      6  N2        -4.6240    0.0290    0.3540 N.pl3   1  UNL1       -0.2241
      7  C5        -4.0060   -0.8230    1.3510 C.3     1  UNL1        0.0818
      8  C6        -2.5640   -0.5570    1.6000 C.3     1  UNL1       -0.0009
      9  C7        -1.6850   -0.8400    0.4150 C.3     1  UNL1        0.0185
     10  N3        -1.7130    0.3330   -0.4260 N.am    1  UNL1       -0.2937
     11  C8        -0.5590    0.4500   -1.2740 C.2     1  UNL1        0.2495
     12  O1        -0.5060    1.4460   -2.0390 O.2     1  UNL1       -0.2699
     13  C9         0.4980   -0.5570   -1.2360 C.ar    1  UNL1        0.0723
     14  C10        1.5970   -0.4530   -0.3870 C.ar    1  UNL1       -0.0433
     15  C11        2.5820   -1.4100   -0.3710 C.ar    1  UNL1       -0.0406
     16  C12        3.7980   -1.3380    0.5160 C.3     1  UNL1        0.0171
     17  C13        4.8610   -0.6240   -0.2780 C.ar    1  UNL1        0.0736
     18  N4         4.8310   -0.6260   -1.6230 N.ar    1  UNL1       -0.1750
     19  N5         5.7030   -0.0140   -2.4000 N.ar    1  UNL1       -0.2425
     20  C14        6.7090    0.6710   -1.8200 C.ar    1  UNL1        0.2725
     21  O2         7.5370    1.2530   -2.5860 O.2     1  UNL1       -0.2658
     22  C15        6.8080    0.7200   -0.4590 C.ar    1  UNL1        0.0496
     23  C16        7.8420    1.4200    0.1160 C.ar    1  UNL1       -0.0487
     24  C17        7.9560    1.4750    1.5030 C.ar    1  UNL1       -0.0610
     25  C18        7.0310    0.8260    2.3050 C.ar    1  UNL1       -0.0611
     26  C19        5.9930    0.1250    1.7080 C.ar    1  UNL1       -0.0521
     27  C20        5.8740    0.0660    0.3360 C.ar    1  UNL1        0.0106
     28  C21        2.4330   -2.4750   -1.2290 C.ar    1  UNL1       -0.0555
     29  C22        1.3510   -2.5940   -2.0760 C.ar    1  UNL1       -0.0254
     30  C23        0.3680   -1.6330   -2.0900 C.ar    1  UNL1        0.1355
     31  F1        -0.7070   -1.7490   -2.9320 F       1  UNL1       -0.2047
     32  C24       -2.7170    1.3500   -0.5070 C.3     1  UNL1        0.0510
     33  C25       -4.1180    0.8260   -0.7160 C.3     1  UNL1        0.0960
     34 H          -7.6493   -1.1543    1.1485 H       1  UNL1        0.2881
     35 H          -6.1247   -1.9059    1.2841 H       1  UNL1        0.2881
     36 H          -8.6936    1.8874    1.0141 H       1  UNL1        0.0316
     37 H          -9.0995    1.3089   -0.3290 H       1  UNL1        0.0316
     38 H          -6.9409    2.6589   -1.3867 H       1  UNL1        0.0316
     39 H          -6.6945    3.4285   -0.1082 H       1  UNL1        0.0316
     40 H          -4.1050   -1.8381    1.0273 H       1  UNL1        0.0726
     41 H          -4.5106   -0.6191    2.2722 H       1  UNL1        0.0726
     42 H          -2.2424   -1.1726    2.4140 H       1  UNL1        0.0317
     43 H          -2.4711    0.4867    1.8165 H       1  UNL1        0.0317
     44 H          -2.0569   -1.6864   -0.1237 H       1  UNL1        0.0466
     45 H          -0.6855   -1.0603    0.7270 H       1  UNL1        0.0466
     46 H           1.6729    0.3604    0.2435 H       1  UNL1        0.0629
     47 H           4.1272   -2.3230    0.7735 H       1  UNL1        0.0377
     48 H           3.5829   -0.8223    1.4285 H       1  UNL1        0.0377
     49 H           5.6214   -0.0563   -3.3802 H       1  UNL1        0.1921
     50 H           8.5325    1.9039   -0.4790 H       1  UNL1        0.0625
     51 H           8.7319    2.0008    1.9348 H       1  UNL1        0.0618
     52 H           7.1130    0.8635    3.3330 H       1  UNL1        0.0618
     53 H           5.3000   -0.3593    2.2998 H       1  UNL1        0.0624
     54 H           3.1564   -3.2109   -1.2392 H       1  UNL1        0.0621
     55 H           1.2788   -3.4101   -2.7036 H       1  UNL1        0.0646
     56 H          -2.4751    1.9951   -1.3257 H       1  UNL1        0.0502
     57 H          -2.7169    1.8560    0.4358 H       1  UNL1        0.0502
     58 H          -4.7711    1.6637   -0.8449 H       1  UNL1        0.0742
     59 H          -4.0763    0.1877   -1.5738 H       1  UNL1        0.0742
@<TRIPOS>BOND
     1     1     2    1
     2     2     3    2
     3     2     6    1
     4     3     4    1
     5     3     5    1
     6     4     5    1
     7     6     7    1
     8     6    33    1
     9     7     8    1
    10     8     9    1
    11     9    10    1
    12    10    11   am
    13    10    32    1
    14    11    12    2
    15    11    13    1
    16    13    14   ar
    17    13    30   ar
    18    14    15   ar
    19    15    16    1
    20    15    28   ar
    21    16    17    1
    22    17    18   ar
    23    17    27   ar
    24    18    19   ar
    25    19    20   ar
    26    20    21    2
    27    20    22   ar
    28    22    23   ar
    29    22    27   ar
    30    23    24   ar
    31    24    25   ar
    32    25    26   ar
    33    26    27   ar
    34    28    29   ar
    35    29    30   ar
    36    30    31    1
    37    32    33    1
    38     1    34    1
    39     1    35    1
    40     4    36    1
    41     4    37    1
    42     5    38    1
    43     5    39    1
    44     7    40    1
    45     7    41    1
    46     8    42    1
    47     8    43    1
    48     9    44    1
    49     9    45    1
    50    14    46    1
    51    16    47    1
    52    16    48    1
    53    19    49    1
    54    23    50    1
    55    24    51    1
    56    25    52    1
    57    26    53    1
    58    28    54    1
    59    29    55    1
    60    32    56    1
    61    32    57    1
    62    33    58    1
    63    33    59    1
@<TRIPOS>MOLECULE
../data/bude_mols_rdkit_confs2/molecule_92.pdb
 59 63 0 0 0
SMALL
GASTEIGER

@<TRIPOS>ATOM
      1  N1         4.6010    1.3450    1.2550 N.pl3   1  UNL1       -0.2515
      2  C1         5.2030    0.3260    0.4760 C.2     1  UNL1        0.2546
      3  C2         6.5180    0.2690    0.3690 C.2     1  UNL1        0.0151
      4  C3         7.8500    0.7830    0.6810 C.3     1  UNL1       -0.0202
      5  C4         7.7250   -0.4330   -0.2060 C.3     1  UNL1       -0.0202
      6  N2         4.3570   -0.6110   -0.1710 N.pl3   1  UNL1       -0.2241
      7  C5         4.6420   -0.9820   -1.5350 C.3     1  UNL1        0.0818
      8  C6         3.5150   -0.5550   -2.4720 C.3     1  UNL1       -0.0009
      9  C7         2.7930    0.6570   -1.8910 C.3     1  UNL1        0.0185
     10  N3         1.8840    0.2900   -0.8460 N.am    1  UNL1       -0.2937
     11  C8         0.8210    1.1800   -0.6020 C.2     1  UNL1        0.2495
     12  O1         0.7470    2.2350   -1.3210 O.2     1  UNL1       -0.2699
     13  C9        -0.1900    0.9490    0.4280 C.ar    1  UNL1        0.0723
     14  C10       -1.3310    0.2510    0.1010 C.ar    1  UNL1       -0.0433
     15  C11       -2.3310   -0.0090    1.0120 C.ar    1  UNL1       -0.0406
     16  C12       -3.5440   -0.7520    0.6620 C.3     1  UNL1        0.0171
     17  C13       -4.6400    0.1140    0.1820 C.ar    1  UNL1        0.0736
     18  N4        -4.5560    1.4500    0.0710 N.ar    1  UNL1       -0.1750
     19  N5        -5.5740    2.1710   -0.3660 N.ar    1  UNL1       -0.2425
     20  C14       -6.7490    1.6260   -0.7250 C.ar    1  UNL1        0.2725
     21  O2        -7.7110    2.3230   -1.1400 O.2     1  UNL1       -0.2658
     22  C15       -6.9110    0.2420   -0.6360 C.ar    1  UNL1        0.0496
     23  C16       -8.1020   -0.3580   -0.9960 C.ar    1  UNL1       -0.0487
     24  C17       -8.2710   -1.7230   -0.9110 C.ar    1  UNL1       -0.0610
     25  C18       -7.1940   -2.4540   -0.4530 C.ar    1  UNL1       -0.0611
     26  C19       -6.0030   -1.8590   -0.0930 C.ar    1  UNL1       -0.0521
     27  C20       -5.8310   -0.4840   -0.1770 C.ar    1  UNL1        0.0106
     28  C21       -2.1670    0.4540    2.2940 C.ar    1  UNL1       -0.0555
     29  C22       -1.0250    1.1670    2.6720 C.ar    1  UNL1       -0.0254
     30  C23       -0.0560    1.3990    1.7210 C.ar    1  UNL1        0.1355
     31  F1         1.0680    2.0990    2.0820 F       1  UNL1       -0.2047
     32  C24        1.9170   -0.8780   -0.0090 C.3     1  UNL1        0.0510
     33  C25        3.2490   -1.1220    0.6290 C.3     1  UNL1        0.0960
     34 H           5.1629    2.0093    1.7156 H       1  UNL1        0.2881
     35 H           3.6208    1.3887    1.3357 H       1  UNL1        0.2881
     36 H           8.2411    0.6811    1.6717 H       1  UNL1        0.0316
     37 H           8.3282    1.7354    0.5858 H       1  UNL1        0.0316
     38 H           7.9433   -0.3645   -1.2513 H       1  UNL1        0.0316
     39 H           8.1087   -1.4318   -0.1994 H       1  UNL1        0.0316
     40 H           4.7580   -2.0442   -1.5905 H       1  UNL1        0.0726
     41 H           5.5405   -0.4871   -1.8393 H       1  UNL1        0.0726
     42 H           2.8213   -1.3618   -2.5844 H       1  UNL1        0.0317
     43 H           3.9261   -0.2983   -3.4259 H       1  UNL1        0.0317
     44 H           2.2442    1.1397   -2.6725 H       1  UNL1        0.0466
     45 H           3.5293    1.3118   -1.4738 H       1  UNL1        0.0466
     46 H          -1.4415   -0.0914   -0.8663 H       1  UNL1        0.0629
     47 H          -3.8822   -1.2787    1.5298 H       1  UNL1        0.0377
     48 H          -3.2901   -1.4156   -0.1381 H       1  UNL1        0.0377
     49 H          -5.4672    3.1475   -0.4312 H       1  UNL1        0.1921
     50 H          -8.8809    0.2278   -1.3354 H       1  UNL1        0.0625
     51 H          -9.1593   -2.1762   -1.1768 H       1  UNL1        0.0618
     52 H          -7.2826   -3.4794   -0.3774 H       1  UNL1        0.0618
     53 H          -5.2251   -2.4469    0.2451 H       1  UNL1        0.0624
     54 H          -2.9028    0.2718    2.9943 H       1  UNL1        0.0621
     55 H          -0.9112    1.5105    3.6385 H       1  UNL1        0.0646
     56 H           1.6675   -1.7295   -0.6069 H       1  UNL1        0.0502
     57 H           1.2154   -0.7161    0.7825 H       1  UNL1        0.0502
     58 H           3.2649   -0.6396    1.5840 H       1  UNL1        0.0742
     59 H           3.3759   -2.1806    0.7191 H       1  UNL1        0.0742
@<TRIPOS>BOND
     1     1     2    1
     2     2     3    2
     3     2     6    1
     4     3     4    1
     5     3     5    1
     6     4     5    1
     7     6     7    1
     8     6    33    1
     9     7     8    1
    10     8     9    1
    11     9    10    1
    12    10    11   am
    13    10    32    1
    14    11    12    2
    15    11    13    1
    16    13    14   ar
    17    13    30   ar
    18    14    15   ar
    19    15    16    1
    20    15    28   ar
    21    16    17    1
    22    17    18   ar
    23    17    27   ar
    24    18    19   ar
    25    19    20   ar
    26    20    21    2
    27    20    22   ar
    28    22    23   ar
    29    22    27   ar
    30    23    24   ar
    31    24    25   ar
    32    25    26   ar
    33    26    27   ar
    34    28    29   ar
    35    29    30   ar
    36    30    31    1
    37    32    33    1
    38     1    34    1
    39     1    35    1
    40     4    36    1
    41     4    37    1
    42     5    38    1
    43     5    39    1
    44     7    40    1
    45     7    41    1
    46     8    42    1
    47     8    43    1
    48     9    44    1
    49     9    45    1
    50    14    46    1
    51    16    47    1
    52    16    48    1
    53    19    49    1
    54    23    50    1
    55    24    51    1
    56    25    52    1
    57    26    53    1
    58    28    54    1
    59    29    55    1
    60    32    56    1
    61    32    57    1
    62    33    58    1
    63    33    59    1
