@<TRIPOS>MOLECULE
../data/bude_mols_rdkit_confs2/molecule_35.pdb
 38 40 0 0 0
SMALL
GASTEIGER

@<TRIPOS>ATOM
      1  O1        -0.7980   -1.7010    0.7940 O.2     1  UNL1       -0.2733
      2  C1        -0.2140   -0.8570    0.0980 C.2     1  UNL1        0.2415
      3  C2        -0.8570   -0.1560   -1.0120 C.3     1  UNL1        0.0705
      4  C3        -1.9760    0.6570   -0.5120 C.ar    1  UNL1        0.0781
      5  N1        -1.6920    1.9840   -0.3230 N.ar    1  UNL1       -0.1748
      6  N2        -2.5730    2.8310    0.1500 N.ar    1  UNL1       -0.2425
      7  C4        -3.8120    2.4590    0.4810 C.ar    1  UNL1        0.2725
      8  O2        -4.6910    3.2360    0.9380 O.2     1  UNL1       -0.2658
      9  C5        -4.1470    1.1220    0.3060 C.ar    1  UNL1        0.0496
     10  C6        -5.4210    0.6900    0.6330 C.ar    1  UNL1       -0.0487
     11  C7        -5.7450   -0.6430    0.4510 C.ar    1  UNL1       -0.0610
     12  C8        -4.8170   -1.5080   -0.0450 C.ar    1  UNL1       -0.0611
     13  C9        -3.5280   -1.0990   -0.3830 C.ar    1  UNL1       -0.0521
     14  C10       -3.2230    0.2240   -0.1930 C.ar    1  UNL1        0.0108
     15  N3         1.1540   -0.5760    0.4160 N.am    1  UNL1       -0.1939
     16  O3         1.6680   -1.2820    1.4390 O.3     1  UNL1       -0.2752
     17  C11        2.8320   -1.9000    1.0410 C.3     1  UNL1        0.0983
     18  C12        3.8520   -0.9070    0.6690 C.ar    1  UNL1       -0.0197
     19  C13        4.7250   -0.3820    1.6380 C.ar    1  UNL1       -0.0563
     20  C14        5.6660    0.5380    1.2470 C.ar    1  UNL1       -0.0614
     21  C15        5.7730    0.9570   -0.0750 C.ar    1  UNL1       -0.0617
     22  C16        4.9170    0.4380   -1.0030 C.ar    1  UNL1       -0.0614
     23  C17        3.9590   -0.4930   -0.6320 C.ar    1  UNL1       -0.0563
     24 H          -1.2259   -0.8715   -1.7169 H       1  UNL1        0.0424
     25 H          -0.1417    0.4837   -1.4853 H       1  UNL1        0.0424
     26 H          -2.3126    3.7734    0.2652 H       1  UNL1        0.1921
     27 H          -6.1187    1.3522    1.0069 H       1  UNL1        0.0625
     28 H          -6.6898   -0.9818    0.6911 H       1  UNL1        0.0618
     29 H          -5.0767   -2.4983   -0.1748 H       1  UNL1        0.0618
     30 H          -2.8337   -1.7631   -0.7598 H       1  UNL1        0.0624
     31 H           1.6827    0.0894   -0.0810 H       1  UNL1        0.1825
     32 H           2.6263   -2.5243    0.1967 H       1  UNL1        0.0634
     33 H           3.2048   -2.4848    1.8558 H       1  UNL1        0.0634
     34 H           4.6598   -0.6821    2.6232 H       1  UNL1        0.0621
     35 H           6.3105    0.9287    1.9520 H       1  UNL1        0.0618
     36 H           6.4878    1.6489   -0.3497 H       1  UNL1        0.0618
     37 H           4.9834    0.7407   -1.9874 H       1  UNL1        0.0618
     38 H           3.3193   -0.8784   -1.3443 H       1  UNL1        0.0621
@<TRIPOS>BOND
     1     1     2    2
     2     2     3    1
     3     2    15   am
     4     3     4    1
     5     4     5   ar
     6     4    14   ar
     7     5     6   ar
     8     6     7   ar
     9     7     8    2
    10     7     9   ar
    11     9    10   ar
    12     9    14   ar
    13    10    11   ar
    14    11    12   ar
    15    12    13   ar
    16    13    14   ar
    17    15    16    1
    18    16    17    1
    19    17    18    1
    20    18    19   ar
    21    18    23   ar
    22    19    20   ar
    23    20    21   ar
    24    21    22   ar
    25    22    23   ar
    26     3    24    1
    27     3    25    1
    28     6    26    1
    29    10    27    1
    30    11    28    1
    31    12    29    1
    32    13    30    1
    33    15    31    1
    34    17    32    1
    35    17    33    1
    36    19    34    1
    37    20    35    1
    38    21    36    1
    39    22    37    1
    40    23    38    1
@<TRIPOS>MOLECULE
../data/bude_mols_rdkit_confs2/molecule_35.pdb
 38 40 0 0 0
SMALL
GASTEIGER

@<TRIPOS>ATOM
      1  O1        -0.4530   -0.3060    1.0270 O.2     1  UNL1       -0.2733
      2  C1        -0.0940   -0.2800   -0.1650 C.2     1  UNL1        0.2415
      3  C2        -0.8470    0.4750   -1.1680 C.3     1  UNL1        0.0705
      4  C3        -2.2400   -0.0660   -1.1350 C.ar    1  UNL1        0.0781
      5  N1        -2.5290   -1.0490   -2.0090 N.ar    1  UNL1       -0.1748
      6  N2        -3.6970   -1.6480   -2.0010 N.ar    1  UNL1       -0.2425
      7  C4        -4.6820   -1.3420   -1.1440 C.ar    1  UNL1        0.2725
      8  O2        -5.8010   -1.9210   -1.1340 O.2     1  UNL1       -0.2658
      9  C5        -4.4250   -0.3270   -0.2250 C.ar    1  UNL1        0.0496
     10  C6        -5.3430    0.0720    0.6960 C.ar    1  UNL1       -0.0487
     11  C7        -5.0860    1.0840    1.6160 C.ar    1  UNL1       -0.0610
     12  C8        -3.8470    1.6860    1.5640 C.ar    1  UNL1       -0.0611
     13  C9        -2.8880    1.3300    0.6680 C.ar    1  UNL1       -0.0521
     14  C10       -3.1740    0.3140   -0.2330 C.ar    1  UNL1        0.0108
     15  N3         1.0750   -1.0150   -0.5460 N.am    1  UNL1       -0.1939
     16  O3         1.8060   -1.7350    0.2420 O.3     1  UNL1       -0.2752
     17  C11        2.6550   -1.2540    1.1640 C.3     1  UNL1        0.0983
     18  C12        3.7970   -0.4390    0.7120 C.ar    1  UNL1       -0.0197
     19  C13        5.1150   -0.8000    0.9860 C.ar    1  UNL1       -0.0563
     20  C14        6.1680   -0.0250    0.5630 C.ar    1  UNL1       -0.0614
     21  C15        5.9590    1.1370   -0.1520 C.ar    1  UNL1       -0.0617
     22  C16        4.6820    1.4980   -0.4270 C.ar    1  UNL1       -0.0614
     23  C17        3.6100    0.7100    0.0070 C.ar    1  UNL1       -0.0563
     24 H          -0.4172    0.3351   -2.1379 H       1  UNL1        0.0424
     25 H          -0.8304    1.5246   -0.9607 H       1  UNL1        0.0424
     26 H          -3.8587   -2.3610   -2.6603 H       1  UNL1        0.1921
     27 H          -6.2642   -0.3930    0.7131 H       1  UNL1        0.0625
     28 H          -5.7943    1.3721    2.3091 H       1  UNL1        0.0618
     29 H          -3.6377    2.4411    2.2355 H       1  UNL1        0.0618
     30 H          -1.9710    1.8033    0.6583 H       1  UNL1        0.0624
     31 H           1.3462   -0.9681   -1.4913 H       1  UNL1        0.1825
     32 H           3.0558   -2.0935    1.6927 H       1  UNL1        0.0634
     33 H           2.0602   -0.5751    1.7386 H       1  UNL1        0.0634
     34 H           5.3036   -1.6651    1.5162 H       1  UNL1        0.0621
     35 H           7.1328   -0.3172    0.7840 H       1  UNL1        0.0618
     36 H           6.7533    1.7150   -0.4685 H       1  UNL1        0.0618
     37 H           4.4985    2.3617   -0.9612 H       1  UNL1        0.0618
     38 H           2.6476    1.0095   -0.2145 H       1  UNL1        0.0621
@<TRIPOS>BOND
     1     1     2    2
     2     2     3    1
     3     2    15   am
     4     3     4    1
     5     4     5   ar
     6     4    14   ar
     7     5     6   ar
     8     6     7   ar
     9     7     8    2
    10     7     9   ar
    11     9    10   ar
    12     9    14   ar
    13    10    11   ar
    14    11    12   ar
    15    12    13   ar
    16    13    14   ar
    17    15    16    1
    18    16    17    1
    19    17    18    1
    20    18    19   ar
    21    18    23   ar
    22    19    20   ar
    23    20    21   ar
    24    21    22   ar
    25    22    23   ar
    26     3    24    1
    27     3    25    1
    28     6    26    1
    29    10    27    1
    30    11    28    1
    31    12    29    1
    32    13    30    1
    33    15    31    1
    34    17    32    1
    35    17    33    1
    36    19    34    1
    37    20    35    1
    38    21    36    1
    39    22    37    1
    40    23    38    1
@<TRIPOS>MOLECULE
../data/bude_mols_rdkit_confs2/molecule_35.pdb
 38 40 0 0 0
SMALL
GASTEIGER

@<TRIPOS>ATOM
      1  O1        -0.1450    0.0770    1.1200 O.2     1  UNL1       -0.2733
      2  C1         0.0980   -0.4870    0.0480 C.2     1  UNL1        0.2415
      3  C2        -0.6660   -0.1740   -1.1850 C.3     1  UNL1        0.0705
      4  C3        -2.0700   -0.5810   -1.1510 C.ar    1  UNL1        0.0781
      5  N1        -2.4390   -1.7850   -1.6940 N.ar    1  UNL1       -0.1748
      6  N2        -3.6720   -2.2320   -1.6510 N.ar    1  UNL1       -0.2425
      7  C4        -4.6420   -1.5240   -1.0660 C.ar    1  UNL1        0.2725
      8  O2        -5.8420   -1.9500   -1.0160 O.2     1  UNL1       -0.2658
      9  C5        -4.3770   -0.2950   -0.4880 C.ar    1  UNL1        0.0496
     10  C6        -5.3800    0.4330    0.1060 C.ar    1  UNL1       -0.0487
     11  C7        -5.0820    1.6460    0.6580 C.ar    1  UNL1       -0.0610
     12  C8        -3.7770    2.0930    0.5910 C.ar    1  UNL1       -0.0611
     13  C9        -2.7760    1.3850    0.0090 C.ar    1  UNL1       -0.0521
     14  C10       -3.0450    0.1550   -0.5540 C.ar    1  UNL1        0.0108
     15  N3         1.1480   -1.4600    0.0420 N.am    1  UNL1       -0.1939
     16  O3         1.9020   -1.8260    1.0530 O.3     1  UNL1       -0.2752
     17  C11        2.6470   -0.9430    1.7370 C.3     1  UNL1        0.0983
     18  C12        3.6930   -0.2160    0.9740 C.ar    1  UNL1       -0.0197
     19  C13        4.4400    0.7280    1.6730 C.ar    1  UNL1       -0.0563
     20  C14        5.4330    1.4490    1.0700 C.ar    1  UNL1       -0.0614
     21  C15        5.7220    1.2500   -0.2740 C.ar    1  UNL1       -0.0617
     22  C16        4.9650    0.3040   -0.9550 C.ar    1  UNL1       -0.0614
     23  C17        3.9710   -0.4120   -0.3410 C.ar    1  UNL1       -0.0563
     24 H          -0.1938   -0.6724   -2.0057 H       1  UNL1        0.0424
     25 H          -0.6615    0.8916   -1.2822 H       1  UNL1        0.0424
     26 H          -3.8856   -3.1033   -2.0565 H       1  UNL1        0.1921
     27 H          -6.3449    0.0681    0.1345 H       1  UNL1        0.0625
     28 H          -5.8133    2.2141    1.1136 H       1  UNL1        0.0618
     29 H          -3.5517    3.0114    1.0042 H       1  UNL1        0.0618
     30 H          -1.8170    1.7656   -0.0122 H       1  UNL1        0.0624
     31 H           1.3250   -1.9055   -0.8179 H       1  UNL1        0.1825
     32 H           3.1338   -1.4743    2.5279 H       1  UNL1        0.0634
     33 H           1.9606   -0.1883    2.0596 H       1  UNL1        0.0634
     34 H           4.2390    0.8878    2.6725 H       1  UNL1        0.0621
     35 H           5.9690    2.1426    1.6146 H       1  UNL1        0.0618
     36 H           6.4683    1.7828   -0.7475 H       1  UNL1        0.0618
     37 H           5.1576    0.1355   -1.9548 H       1  UNL1        0.0618
     38 H           3.4299   -1.1049   -0.8814 H       1  UNL1        0.0621
@<TRIPOS>BOND
     1     1     2    2
     2     2     3    1
     3     2    15   am
     4     3     4    1
     5     4     5   ar
     6     4    14   ar
     7     5     6   ar
     8     6     7   ar
     9     7     8    2
    10     7     9   ar
    11     9    10   ar
    12     9    14   ar
    13    10    11   ar
    14    11    12   ar
    15    12    13   ar
    16    13    14   ar
    17    15    16    1
    18    16    17    1
    19    17    18    1
    20    18    19   ar
    21    18    23   ar
    22    19    20   ar
    23    20    21   ar
    24    21    22   ar
    25    22    23   ar
    26     3    24    1
    27     3    25    1
    28     6    26    1
    29    10    27    1
    30    11    28    1
    31    12    29    1
    32    13    30    1
    33    15    31    1
    34    17    32    1
    35    17    33    1
    36    19    34    1
    37    20    35    1
    38    21    36    1
    39    22    37    1
    40    23    38    1
@<TRIPOS>MOLECULE
../data/bude_mols_rdkit_confs2/molecule_35.pdb
 38 40 0 0 0
SMALL
GASTEIGER

@<TRIPOS>ATOM
      1  O1        -0.1520    1.1220    0.0650 O.2     1  UNL1       -0.2733
      2  C1        -0.3150    0.9690    1.3150 C.2     1  UNL1        0.2415
      3  C2        -1.6690    1.0820    1.9140 C.3     1  UNL1        0.0705
      4  C3        -2.6470    1.3850    0.8420 C.ar    1  UNL1        0.0781
      5  N1        -3.1890    2.5980    0.6780 N.ar    1  UNL1       -0.1748
      6  N2        -4.0670    2.8860   -0.2630 N.ar    1  UNL1       -0.2425
      7  C4        -4.4580    1.9350   -1.1160 C.ar    1  UNL1        0.2725
      8  O2        -5.2940    2.1350   -2.0410 O.2     1  UNL1       -0.2658
      9  C5        -3.9360    0.6580   -1.0030 C.ar    1  UNL1        0.0496
     10  C6        -4.3330   -0.3420   -1.8850 C.ar    1  UNL1       -0.0487
     11  C7        -3.8030   -1.6000   -1.7570 C.ar    1  UNL1       -0.0610
     12  C8        -2.8870   -1.8890   -0.7710 C.ar    1  UNL1       -0.0611
     13  C9        -2.4940   -0.9080    0.1000 C.ar    1  UNL1       -0.0521
     14  C10       -3.0240    0.3670   -0.0210 C.ar    1  UNL1        0.0108
     15  N3         0.8470    0.6880    2.0920 N.am    1  UNL1       -0.1939
     16  O3         2.0770    0.5850    1.5310 O.3     1  UNL1       -0.2752
     17  C11        2.1330   -0.5950    0.7490 C.3     1  UNL1        0.0983
     18  C12        3.4910   -0.7050    0.1340 C.ar    1  UNL1       -0.0197
     19  C13        3.8480    0.0850   -0.9500 C.ar    1  UNL1       -0.0563
     20  C14        5.0890   -0.0060   -1.5410 C.ar    1  UNL1       -0.0614
     21  C15        6.0260   -0.8950   -1.0680 C.ar    1  UNL1       -0.0617
     22  C16        5.6950   -1.6900    0.0070 C.ar    1  UNL1       -0.0614
     23  C17        4.4330   -1.5950    0.6060 C.ar    1  UNL1       -0.0563
     24 H          -1.6761    1.8689    2.6390 H       1  UNL1        0.0424
     25 H          -1.9307    0.1614    2.3925 H       1  UNL1        0.0424
     26 H          -4.4325    3.7972   -0.3365 H       1  UNL1        0.1921
     27 H          -5.0196   -0.1389   -2.6282 H       1  UNL1        0.0625
     28 H          -4.0958   -2.3428   -2.4109 H       1  UNL1        0.0618
     29 H          -2.4979   -2.8413   -0.6885 H       1  UNL1        0.0618
     30 H          -1.8076   -1.1167    0.8418 H       1  UNL1        0.0624
     31 H           0.7535    0.5652    3.0643 H       1  UNL1        0.1825
     32 H           1.3923   -0.5504   -0.0219 H       1  UNL1        0.0634
     33 H           1.9448   -1.4482    1.3667 H       1  UNL1        0.0634
     34 H           3.1635    0.7605   -1.3243 H       1  UNL1        0.0621
     35 H           5.3177    0.5982   -2.3458 H       1  UNL1        0.0618
     36 H           6.9565   -0.9648   -1.5088 H       1  UNL1        0.0618
     37 H           6.3850   -2.3633    0.3751 H       1  UNL1        0.0618
     38 H           4.2047   -2.1988    1.4112 H       1  UNL1        0.0621
@<TRIPOS>BOND
     1     1     2    2
     2     2     3    1
     3     2    15   am
     4     3     4    1
     5     4     5   ar
     6     4    14   ar
     7     5     6   ar
     8     6     7   ar
     9     7     8    2
    10     7     9   ar
    11     9    10   ar
    12     9    14   ar
    13    10    11   ar
    14    11    12   ar
    15    12    13   ar
    16    13    14   ar
    17    15    16    1
    18    16    17    1
    19    17    18    1
    20    18    19   ar
    21    18    23   ar
    22    19    20   ar
    23    20    21   ar
    24    21    22   ar
    25    22    23   ar
    26     3    24    1
    27     3    25    1
    28     6    26    1
    29    10    27    1
    30    11    28    1
    31    12    29    1
    32    13    30    1
    33    15    31    1
    34    17    32    1
    35    17    33    1
    36    19    34    1
    37    20    35    1
    38    21    36    1
    39    22    37    1
    40    23    38    1
@<TRIPOS>MOLECULE
../data/bude_mols_rdkit_confs2/molecule_35.pdb
 38 40 0 0 0
SMALL
GASTEIGER

@<TRIPOS>ATOM
      1  O1        -0.3120    0.3680    0.2380 O.2     1  UNL1       -0.2733
      2  C1        -0.2620    0.5910   -1.0020 C.2     1  UNL1        0.2415
      3  C2        -1.4950    0.9860   -1.7630 C.3     1  UNL1        0.0705
      4  C3        -2.6100    1.0700   -0.7970 C.ar    1  UNL1        0.0781
      5  N1        -3.0220    2.2920   -0.4330 N.ar    1  UNL1       -0.1748
      6  N2        -4.0050    2.4440    0.4190 N.ar    1  UNL1       -0.2425
      7  C4        -4.6300    1.3860    0.9540 C.ar    1  UNL1        0.2725
      8  O2        -5.5800    1.5430    1.7770 O.2     1  UNL1       -0.2658
      9  C5        -4.2680    0.1020    0.6330 C.ar    1  UNL1        0.0496
     10  C6        -4.8990   -0.9940    1.1730 C.ar    1  UNL1       -0.0487
     11  C7        -4.4610   -2.2500    0.7870 C.ar    1  UNL1       -0.0610
     12  C8        -3.4320   -2.4140   -0.1050 C.ar    1  UNL1       -0.0611
     13  C9        -2.8000   -1.3120   -0.6460 C.ar    1  UNL1       -0.0521
     14  C10       -3.2210   -0.0450   -0.2750 C.ar    1  UNL1        0.0108
     15  N3         1.0010    0.4500   -1.6210 N.am    1  UNL1       -0.1939
     16  O3         2.0900    0.1050   -0.9790 O.3     1  UNL1       -0.2752
     17  C11        2.5730    0.8920    0.0150 C.3     1  UNL1        0.0983
     18  C12        3.8240    0.2140    0.5170 C.ar    1  UNL1       -0.0197
     19  C13        4.5350    0.8030    1.5260 C.ar    1  UNL1       -0.0563
     20  C14        5.6890    0.2060    2.0130 C.ar    1  UNL1       -0.0614
     21  C15        6.1340   -0.9790    1.4950 C.ar    1  UNL1       -0.0617
     22  C16        5.4310   -1.5940    0.4740 C.ar    1  UNL1       -0.0614
     23  C17        4.2730   -0.9730    0.0000 C.ar    1  UNL1       -0.0563
     24 H          -1.7138    0.2513   -2.5094 H       1  UNL1        0.0424
     25 H          -1.3495    1.9271   -2.2509 H       1  UNL1        0.0424
     26 H          -4.2900    3.3520    0.6711 H       1  UNL1        0.1921
     27 H          -5.6746   -0.8841    1.8448 H       1  UNL1        0.0625
     28 H          -4.9214   -3.0852    1.1813 H       1  UNL1        0.0618
     29 H          -3.1293   -3.3637   -0.3725 H       1  UNL1        0.0618
     30 H          -2.0250   -1.4303   -1.3172 H       1  UNL1        0.0624
     31 H           1.0661    0.6205   -2.5884 H       1  UNL1        0.1825
     32 H           1.8548    0.9765    0.8036 H       1  UNL1        0.0634
     33 H           2.7793    1.8815   -0.3359 H       1  UNL1        0.0634
     34 H           4.2113    1.6968    1.9276 H       1  UNL1        0.0621
     35 H           6.2171    0.6609    2.7741 H       1  UNL1        0.0618
     36 H           6.9934   -1.4142    1.8653 H       1  UNL1        0.0618
     37 H           5.7539   -2.4884    0.0731 H       1  UNL1        0.0618
     38 H           3.7401   -1.4212   -0.7617 H       1  UNL1        0.0621
@<TRIPOS>BOND
     1     1     2    2
     2     2     3    1
     3     2    15   am
     4     3     4    1
     5     4     5   ar
     6     4    14   ar
     7     5     6   ar
     8     6     7   ar
     9     7     8    2
    10     7     9   ar
    11     9    10   ar
    12     9    14   ar
    13    10    11   ar
    14    11    12   ar
    15    12    13   ar
    16    13    14   ar
    17    15    16    1
    18    16    17    1
    19    17    18    1
    20    18    19   ar
    21    18    23   ar
    22    19    20   ar
    23    20    21   ar
    24    21    22   ar
    25    22    23   ar
    26     3    24    1
    27     3    25    1
    28     6    26    1
    29    10    27    1
    30    11    28    1
    31    12    29    1
    32    13    30    1
    33    15    31    1
    34    17    32    1
    35    17    33    1
    36    19    34    1
    37    20    35    1
    38    21    36    1
    39    22    37    1
    40    23    38    1
@<TRIPOS>MOLECULE
../data/bude_mols_rdkit_confs2/molecule_35.pdb
 38 40 0 0 0
SMALL
GASTEIGER

@<TRIPOS>ATOM
      1  O1        -0.5690   -0.7520    0.8250 O.2     1  UNL1       -0.2733
      2  C1        -0.3950   -0.4450   -0.3640 C.2     1  UNL1        0.2415
      3  C2        -1.5020   -0.4480   -1.3430 C.3     1  UNL1        0.0705
      4  C3        -2.7950   -0.8790   -0.8560 C.ar    1  UNL1        0.0781
      5  N1        -3.3030   -2.1020   -1.1930 N.ar    1  UNL1       -0.1748
      6  N2        -4.4950   -2.5020   -0.7710 N.ar    1  UNL1       -0.2425
      7  C4        -5.2900   -1.7530    0.0090 C.ar    1  UNL1        0.2725
      8  O2        -6.4250   -2.1700    0.3910 O.2     1  UNL1       -0.2658
      9  C5        -4.8320   -0.5100    0.3830 C.ar    1  UNL1        0.0496
     10  C6        -5.6150    0.2890    1.1830 C.ar    1  UNL1       -0.0487
     11  C7        -5.1300    1.5410    1.5480 C.ar    1  UNL1       -0.0610
     12  C8        -3.9060    1.9740    1.1280 C.ar    1  UNL1       -0.0611
     13  C9        -3.1440    1.1480    0.3260 C.ar    1  UNL1       -0.0521
     14  C10       -3.5930   -0.0970   -0.0560 C.ar    1  UNL1        0.0108
     15  N3         0.8990   -0.0820   -0.8020 N.am    1  UNL1       -0.1939
     16  O3         1.9950   -0.0450    0.0240 O.3     1  UNL1       -0.2752
     17  C11        3.0810    0.1870   -0.8110 C.3     1  UNL1        0.0983
     18  C12        4.3670    0.2710   -0.0710 C.ar    1  UNL1       -0.0197
     19  C13        4.8740    1.4700    0.3710 C.ar    1  UNL1       -0.0563
     20  C14        6.0640    1.5030    1.0500 C.ar    1  UNL1       -0.0614
     21  C15        6.7830    0.3540    1.3120 C.ar    1  UNL1       -0.0617
     22  C16        6.2750   -0.8650    0.8660 C.ar    1  UNL1       -0.0614
     23  C17        5.0780   -0.8790    0.1850 C.ar    1  UNL1       -0.0563
     24 H          -1.2239   -1.0984   -2.1458 H       1  UNL1        0.0424
     25 H          -1.6330    0.5759   -1.6247 H       1  UNL1        0.0424
     26 H          -4.8127   -3.3931   -1.0436 H       1  UNL1        0.1921
     27 H          -6.5411   -0.0327    1.5052 H       1  UNL1        0.0625
     28 H          -5.7061    2.1529    2.1469 H       1  UNL1        0.0618
     29 H          -3.5555    2.9041    1.4054 H       1  UNL1        0.0618
     30 H          -2.2175    1.4704    0.0056 H       1  UNL1        0.0624
     31 H           1.0207    0.1569   -1.7493 H       1  UNL1        0.1825
     32 H           2.9234    1.1100   -1.3289 H       1  UNL1        0.0634
     33 H           3.1509   -0.6396   -1.4868 H       1  UNL1        0.0634
     34 H           4.3582    2.3456    0.1914 H       1  UNL1        0.0621
     35 H           6.4324    2.4109    1.3741 H       1  UNL1        0.0618
     36 H           7.6766    0.3966    1.8265 H       1  UNL1        0.0618
     37 H           6.7876   -1.7430    1.0432 H       1  UNL1        0.0618
     38 H           4.7018   -1.7818   -0.1442 H       1  UNL1        0.0621
@<TRIPOS>BOND
     1     1     2    2
     2     2     3    1
     3     2    15   am
     4     3     4    1
     5     4     5   ar
     6     4    14   ar
     7     5     6   ar
     8     6     7   ar
     9     7     8    2
    10     7     9   ar
    11     9    10   ar
    12     9    14   ar
    13    10    11   ar
    14    11    12   ar
    15    12    13   ar
    16    13    14   ar
    17    15    16    1
    18    16    17    1
    19    17    18    1
    20    18    19   ar
    21    18    23   ar
    22    19    20   ar
    23    20    21   ar
    24    21    22   ar
    25    22    23   ar
    26     3    24    1
    27     3    25    1
    28     6    26    1
    29    10    27    1
    30    11    28    1
    31    12    29    1
    32    13    30    1
    33    15    31    1
    34    17    32    1
    35    17    33    1
    36    19    34    1
    37    20    35    1
    38    21    36    1
    39    22    37    1
    40    23    38    1
@<TRIPOS>MOLECULE
../data/bude_mols_rdkit_confs2/molecule_35.pdb
 38 40 0 0 0
SMALL
GASTEIGER

@<TRIPOS>ATOM
      1  O1        -0.2120    0.6220   -0.3390 O.2     1  UNL1       -0.2733
      2  C1        -0.0210   -0.2240    0.5300 C.2     1  UNL1        0.2415
      3  C2         1.3470   -0.5470    1.0060 C.3     1  UNL1        0.0705
      4  C3         2.3120    0.3890    0.3610 C.ar    1  UNL1        0.0781
      5  N1         1.9680    1.4960   -0.3040 N.ar    1  UNL1       -0.1748
      6  N2         2.9000    2.3020   -0.8440 N.ar    1  UNL1       -0.2425
      7  C4         4.2110    2.0400   -0.7430 C.ar    1  UNL1        0.2725
      8  O2         5.1010    2.7880   -1.2430 O.2     1  UNL1       -0.2658
      9  C5         4.6090    0.9050   -0.0650 C.ar    1  UNL1        0.0496
     10  C6         5.9560    0.5870    0.0690 C.ar    1  UNL1       -0.0487
     11  C7         6.3000   -0.5570    0.7580 C.ar    1  UNL1       -0.0610
     12  C8         5.3760   -1.4030    1.3210 C.ar    1  UNL1       -0.0611
     13  C9         4.0390   -1.0660    1.1750 C.ar    1  UNL1       -0.0521
     14  C10        3.6600    0.0680    0.4950 C.ar    1  UNL1        0.0108
     15  N3        -1.0770   -0.9450    1.1330 N.am    1  UNL1       -0.1939
     16  O3        -2.3350   -0.7850    0.8290 O.3     1  UNL1       -0.2752
     17  C11       -2.7330   -0.0400   -0.2190 C.3     1  UNL1        0.0983
     18  C12       -4.2410   -0.1030   -0.2610 C.ar    1  UNL1       -0.0197
     19  C13       -4.9460    0.4760   -1.2930 C.ar    1  UNL1       -0.0563
     20  C14       -6.3230    0.4090   -1.3110 C.ar    1  UNL1       -0.0614
     21  C15       -6.9960   -0.2430   -0.2860 C.ar    1  UNL1       -0.0617
     22  C16       -6.3130   -0.8250    0.7470 C.ar    1  UNL1       -0.0614
     23  C17       -4.9330   -0.7440    0.7430 C.ar    1  UNL1       -0.0563
     24 H           1.5915   -1.5546    0.7416 H       1  UNL1        0.0424
     25 H           1.3961   -0.4446    2.0700 H       1  UNL1        0.0424
     26 H           2.6105    3.1089   -1.3281 H       1  UNL1        0.1921
     27 H           6.6835    1.1948   -0.3389 H       1  UNL1        0.0625
     28 H           7.3009   -0.7888    0.8554 H       1  UNL1        0.0618
     29 H           5.6644   -2.2528    1.8307 H       1  UNL1        0.0618
     30 H           3.3150   -1.6772    1.5840 H       1  UNL1        0.0624
     31 H          -0.8489   -1.6079    1.8242 H       1  UNL1        0.1825
     32 H          -2.3238   -0.4338   -1.1258 H       1  UNL1        0.0634
     33 H          -2.3966    0.9707   -0.1175 H       1  UNL1        0.0634
     34 H          -4.4432    0.9602   -2.0531 H       1  UNL1        0.0621
     35 H          -6.8521    0.8421   -2.0840 H       1  UNL1        0.0618
     36 H          -8.0268   -0.2893   -0.3037 H       1  UNL1        0.0618
     37 H          -6.8139   -1.3106    1.5075 H       1  UNL1        0.0618
     38 H          -4.4046   -1.1773    1.5164 H       1  UNL1        0.0621
@<TRIPOS>BOND
     1     1     2    2
     2     2     3    1
     3     2    15   am
     4     3     4    1
     5     4     5   ar
     6     4    14   ar
     7     5     6   ar
     8     6     7   ar
     9     7     8    2
    10     7     9   ar
    11     9    10   ar
    12     9    14   ar
    13    10    11   ar
    14    11    12   ar
    15    12    13   ar
    16    13    14   ar
    17    15    16    1
    18    16    17    1
    19    17    18    1
    20    18    19   ar
    21    18    23   ar
    22    19    20   ar
    23    20    21   ar
    24    21    22   ar
    25    22    23   ar
    26     3    24    1
    27     3    25    1
    28     6    26    1
    29    10    27    1
    30    11    28    1
    31    12    29    1
    32    13    30    1
    33    15    31    1
    34    17    32    1
    35    17    33    1
    36    19    34    1
    37    20    35    1
    38    21    36    1
    39    22    37    1
    40    23    38    1
@<TRIPOS>MOLECULE
../data/bude_mols_rdkit_confs2/molecule_35.pdb
 38 40 0 0 0
SMALL
GASTEIGER

@<TRIPOS>ATOM
      1  O1         0.2220   -1.1620   -0.3950 O.2     1  UNL1       -0.2733
      2  C1         0.2740   -1.1960    0.8630 C.2     1  UNL1        0.2415
      3  C2         1.5780   -1.3740    1.5870 C.3     1  UNL1        0.0705
      4  C3         2.7030   -1.4930    0.6580 C.ar    1  UNL1        0.0781
      5  N1         3.2600   -2.6970    0.4210 N.ar    1  UNL1       -0.1748
      6  N2         4.2880   -2.8270   -0.4240 N.ar    1  UNL1       -0.2425
      7  C4         4.8000   -1.7680   -1.0640 C.ar    1  UNL1        0.2725
      8  O2         5.7700   -1.9610   -1.8470 O.2     1  UNL1       -0.2658
      9  C5         4.2820   -0.5060   -0.8700 C.ar    1  UNL1        0.0496
     10  C6         4.8190    0.5730   -1.5350 C.ar    1  UNL1       -0.0487
     11  C7         4.2530    1.8070   -1.2960 C.ar    1  UNL1       -0.0610
     12  C8         3.1900    1.9710   -0.4280 C.ar    1  UNL1       -0.0611
     13  C9         2.6800    0.8730    0.2170 C.ar    1  UNL1       -0.0521
     14  C10        3.2190   -0.3790    0.0050 C.ar    1  UNL1        0.0108
     15  N3        -0.9550   -1.0590    1.5510 N.am    1  UNL1       -0.1939
     16  O3        -2.1160   -0.9000    0.8780 O.3     1  UNL1       -0.2752
     17  C11       -2.5390    0.4440    0.9770 C.3     1  UNL1        0.0983
     18  C12       -3.8000    0.6650    0.2590 C.ar    1  UNL1       -0.0197
     19  C13       -4.4220   -0.3680   -0.4030 C.ar    1  UNL1       -0.0563
     20  C14       -5.6070   -0.1250   -1.0700 C.ar    1  UNL1       -0.0614
     21  C15       -6.1730    1.1530   -1.0770 C.ar    1  UNL1       -0.0617
     22  C16       -5.5540    2.1920   -0.4160 C.ar    1  UNL1       -0.0614
     23  C17       -4.3650    1.9150    0.2450 C.ar    1  UNL1       -0.0563
     24 H           1.5252   -2.2613    2.1827 H       1  UNL1        0.0424
     25 H           1.7404   -0.5104    2.1975 H       1  UNL1        0.0424
     26 H           4.6760   -3.7185   -0.5787 H       1  UNL1        0.1921
     27 H           5.6125    0.4627   -2.1856 H       1  UNL1        0.0625
     28 H           4.6350    2.6343   -1.7804 H       1  UNL1        0.0618
     29 H           2.7855    2.9067   -0.2673 H       1  UNL1        0.0618
     30 H           1.8860    0.9846    0.8667 H       1  UNL1        0.0624
     31 H          -0.9643   -1.0798    2.5352 H       1  UNL1        0.1825
     32 H          -1.7850    1.0776    0.5587 H       1  UNL1        0.0634
     33 H          -2.6968    0.6712    2.0106 H       1  UNL1        0.0634
     34 H          -4.0082   -1.3134   -0.4014 H       1  UNL1        0.0621
     35 H          -6.0795   -0.8953   -1.5685 H       1  UNL1        0.0618
     36 H          -7.0588    1.3195   -1.5796 H       1  UNL1        0.0618
     37 H          -5.9595    3.1410   -0.4125 H       1  UNL1        0.0618
     38 H          -3.8870    2.6802    0.7460 H       1  UNL1        0.0621
@<TRIPOS>BOND
     1     1     2    2
     2     2     3    1
     3     2    15   am
     4     3     4    1
     5     4     5   ar
     6     4    14   ar
     7     5     6   ar
     8     6     7   ar
     9     7     8    2
    10     7     9   ar
    11     9    10   ar
    12     9    14   ar
    13    10    11   ar
    14    11    12   ar
    15    12    13   ar
    16    13    14   ar
    17    15    16    1
    18    16    17    1
    19    17    18    1
    20    18    19   ar
    21    18    23   ar
    22    19    20   ar
    23    20    21   ar
    24    21    22   ar
    25    22    23   ar
    26     3    24    1
    27     3    25    1
    28     6    26    1
    29    10    27    1
    30    11    28    1
    31    12    29    1
    32    13    30    1
    33    15    31    1
    34    17    32    1
    35    17    33    1
    36    19    34    1
    37    20    35    1
    38    21    36    1
    39    22    37    1
    40    23    38    1
@<TRIPOS>MOLECULE
../data/bude_mols_rdkit_confs2/molecule_35.pdb
 38 40 0 0 0
SMALL
GASTEIGER

@<TRIPOS>ATOM
      1  O1        -0.4380    0.3710   -0.2690 O.2     1  UNL1       -0.2733
      2  C1        -0.3250   -0.4680    0.6740 C.2     1  UNL1        0.2415
      3  C2        -1.4000   -0.6710    1.6670 C.3     1  UNL1        0.0705
      4  C3        -2.5180    0.2240    1.3490 C.ar    1  UNL1        0.0781
      5  N1        -2.7120    1.3400    2.0680 N.ar    1  UNL1       -0.1748
      6  N2        -3.6740    2.1930    1.8580 N.ar    1  UNL1       -0.2425
      7  C4        -4.5650    1.9820    0.8550 C.ar    1  UNL1        0.2725
      8  O2        -5.5090    2.7850    0.6210 O.2     1  UNL1       -0.2658
      9  C5        -4.4630    0.8800    0.0600 C.ar    1  UNL1        0.0496
     10  C6        -5.3170    0.5850   -0.9760 C.ar    1  UNL1       -0.0487
     11  C7        -5.1780   -0.5570   -1.7660 C.ar    1  UNL1       -0.0610
     12  C8        -4.1430   -1.4240   -1.4990 C.ar    1  UNL1       -0.0611
     13  C9        -3.2780   -1.1300   -0.4540 C.ar    1  UNL1       -0.0521
     14  C10       -3.4140   -0.0030    0.3270 C.ar    1  UNL1        0.0108
     15  N3         0.9070   -1.1980    0.7060 N.am    1  UNL1       -0.1939
     16  O3         1.8920   -1.0140   -0.2020 O.3     1  UNL1       -0.2752
     17  C11        2.9680   -0.4360    0.5130 C.3     1  UNL1        0.0983
     18  C12        4.1330   -0.1660   -0.3390 C.ar    1  UNL1       -0.0197
     19  C13        4.0560    0.8750   -1.2220 C.ar    1  UNL1       -0.0563
     20  C14        5.1040    1.1800   -2.0410 C.ar    1  UNL1       -0.0614
     21  C15        6.2600    0.4100   -1.9620 C.ar    1  UNL1       -0.0617
     22  C16        6.3510   -0.6410   -1.0780 C.ar    1  UNL1       -0.0614
     23  C17        5.2760   -0.9190   -0.2690 C.ar    1  UNL1       -0.0563
     24 H          -1.0304   -0.4495    2.6464 H       1  UNL1        0.0424
     25 H          -1.7313   -1.6880    1.6388 H       1  UNL1        0.0424
     26 H          -3.7552    2.9920    2.4274 H       1  UNL1        0.1921
     27 H          -6.0929    1.2348   -1.1779 H       1  UNL1        0.0625
     28 H          -5.8386   -0.7477   -2.5356 H       1  UNL1        0.0618
     29 H          -4.0125   -2.2769   -2.0652 H       1  UNL1        0.0618
     30 H          -2.5026   -1.7810   -0.2542 H       1  UNL1        0.0624
     31 H           1.0425   -1.8623    1.4198 H       1  UNL1        0.1825
     32 H           3.2618   -1.1080    1.2921 H       1  UNL1        0.0634
     33 H           2.6300    0.5003    0.9054 H       1  UNL1        0.0634
     34 H           3.1927    1.4384   -1.2698 H       1  UNL1        0.0621
     35 H           5.0403    1.9666   -2.7061 H       1  UNL1        0.0618
     36 H           7.0606    0.6300   -2.5749 H       1  UNL1        0.0618
     37 H           7.2106   -1.2095   -1.0239 H       1  UNL1        0.0618
     38 H           5.3298   -1.7038    0.3990 H       1  UNL1        0.0621
@<TRIPOS>BOND
     1     1     2    2
     2     2     3    1
     3     2    15   am
     4     3     4    1
     5     4     5   ar
     6     4    14   ar
     7     5     6   ar
     8     6     7   ar
     9     7     8    2
    10     7     9   ar
    11     9    10   ar
    12     9    14   ar
    13    10    11   ar
    14    11    12   ar
    15    12    13   ar
    16    13    14   ar
    17    15    16    1
    18    16    17    1
    19    17    18    1
    20    18    19   ar
    21    18    23   ar
    22    19    20   ar
    23    20    21   ar
    24    21    22   ar
    25    22    23   ar
    26     3    24    1
    27     3    25    1
    28     6    26    1
    29    10    27    1
    30    11    28    1
    31    12    29    1
    32    13    30    1
    33    15    31    1
    34    17    32    1
    35    17    33    1
    36    19    34    1
    37    20    35    1
    38    21    36    1
    39    22    37    1
    40    23    38    1
@<TRIPOS>MOLECULE
../data/bude_mols_rdkit_confs2/molecule_35.pdb
 38 40 0 0 0
SMALL
GASTEIGER

@<TRIPOS>ATOM
      1  O1        -0.8360   -0.2030    1.6650 O.2     1  UNL1       -0.2733
      2  C1        -0.0940   -0.6260    0.7420 C.2     1  UNL1        0.2415
      3  C2        -0.6820   -1.3840   -0.4170 C.3     1  UNL1        0.0705
      4  C3        -2.1410   -1.4920   -0.2100 C.ar    1  UNL1        0.0781
      5  N1        -2.6900   -2.6580    0.2010 N.ar    1  UNL1       -0.1748
      6  N2        -3.9900   -2.7880    0.3970 N.ar    1  UNL1       -0.2425
      7  C4        -4.7940   -1.7370    0.1830 C.ar    1  UNL1        0.2725
      8  O2        -6.0270   -1.8850    0.3750 O.2     1  UNL1       -0.2658
      9  C5        -4.3190   -0.5140   -0.2370 C.ar    1  UNL1        0.0496
     10  C6        -5.1690    0.5510   -0.4490 C.ar    1  UNL1       -0.0487
     11  C7        -4.6350    1.7500   -0.8680 C.ar    1  UNL1       -0.0610
     12  C8        -3.2680    1.8900   -1.0740 C.ar    1  UNL1       -0.0611
     13  C9        -2.4360    0.8130   -0.8560 C.ar    1  UNL1       -0.0521
     14  C10       -2.9560   -0.4030   -0.4340 C.ar    1  UNL1        0.0108
     15  N3         1.2940   -0.3610    0.8440 N.am    1  UNL1       -0.1939
     16  O3         1.7510    0.3240    1.9120 O.3     1  UNL1       -0.2752
     17  C11        2.4600    1.4220    1.4410 C.3     1  UNL1        0.0983
     18  C12        3.5900    0.9130    0.6120 C.ar    1  UNL1       -0.0197
     19  C13        4.7230    0.4070    1.2610 C.ar    1  UNL1       -0.0563
     20  C14        5.7700   -0.0580    0.4940 C.ar    1  UNL1       -0.0614
     21  C15        5.6640   -0.0090   -0.8800 C.ar    1  UNL1       -0.0617
     22  C16        4.5580    0.4860   -1.5140 C.ar    1  UNL1       -0.0614
     23  C17        3.5020    0.9550   -0.7630 C.ar    1  UNL1       -0.0563
     24 H          -0.2504   -2.3619   -0.4658 H       1  UNL1        0.0424
     25 H          -0.4772   -0.8718   -1.3338 H       1  UNL1        0.0424
     26 H          -4.3643   -3.6477    0.6971 H       1  UNL1        0.1921
     27 H          -6.1849    0.4519   -0.2968 H       1  UNL1        0.0625
     28 H          -5.2591    2.5555   -1.0312 H       1  UNL1        0.0618
     29 H          -2.8789    2.7929   -1.3876 H       1  UNL1        0.0618
     30 H          -1.4199    0.9112   -1.0075 H       1  UNL1        0.0624
     31 H           1.9151   -0.6720    0.1463 H       1  UNL1        0.1825
     32 H           2.8396    1.9906    2.2641 H       1  UNL1        0.0634
     33 H           1.8244    2.0555    0.8582 H       1  UNL1        0.0634
     34 H           4.7732    0.3827    2.2915 H       1  UNL1        0.0621
     35 H           6.6196   -0.4367    0.9410 H       1  UNL1        0.0618
     36 H           6.4489   -0.3591   -1.4514 H       1  UNL1        0.0618
     37 H           4.5146    0.5081   -2.5449 H       1  UNL1        0.0618
     38 H           2.6584    1.3318   -1.2229 H       1  UNL1        0.0621
@<TRIPOS>BOND
     1     1     2    2
     2     2     3    1
     3     2    15   am
     4     3     4    1
     5     4     5   ar
     6     4    14   ar
     7     5     6   ar
     8     6     7   ar
     9     7     8    2
    10     7     9   ar
    11     9    10   ar
    12     9    14   ar
    13    10    11   ar
    14    11    12   ar
    15    12    13   ar
    16    13    14   ar
    17    15    16    1
    18    16    17    1
    19    17    18    1
    20    18    19   ar
    21    18    23   ar
    22    19    20   ar
    23    20    21   ar
    24    21    22   ar
    25    22    23   ar
    26     3    24    1
    27     3    25    1
    28     6    26    1
    29    10    27    1
    30    11    28    1
    31    12    29    1
    32    13    30    1
    33    15    31    1
    34    17    32    1
    35    17    33    1
    36    19    34    1
    37    20    35    1
    38    21    36    1
    39    22    37    1
    40    23    38    1
@<TRIPOS>MOLECULE
../data/bude_mols_rdkit_confs2/molecule_35.pdb
 38 40 0 0 0
SMALL
GASTEIGER

@<TRIPOS>ATOM
      1  O1        -0.0410   -1.2200    0.3840 O.2     1  UNL1       -0.2733
      2  C1        -0.1660    0.0170    0.2770 C.2     1  UNL1        0.2415
      3  C2        -1.4520    0.7630    0.5580 C.3     1  UNL1        0.0705
      4  C3        -2.5800    0.4070   -0.2690 C.ar    1  UNL1        0.0781
      5  N1        -2.3860    0.5310   -1.6200 N.ar    1  UNL1       -0.1748
      6  N2        -3.3150    0.2010   -2.4980 N.ar    1  UNL1       -0.2425
      7  C4        -4.5210   -0.2820   -2.1180 C.ar    1  UNL1        0.2725
      8  O2        -5.3770   -0.5850   -2.9610 O.2     1  UNL1       -0.2658
      9  C5        -4.7910   -0.4330   -0.7680 C.ar    1  UNL1        0.0496
     10  C6        -6.0570   -0.8670   -0.3570 C.ar    1  UNL1       -0.0487
     11  C7        -6.2950   -0.9370    1.0060 C.ar    1  UNL1       -0.0610
     12  C8        -5.3280   -0.5960    1.9250 C.ar    1  UNL1       -0.0611
     13  C9        -4.0630   -0.1620    1.4780 C.ar    1  UNL1       -0.0521
     14  C10       -3.7990   -0.0800    0.1270 C.ar    1  UNL1        0.0108
     15  N3         0.9620    0.7510   -0.1320 N.am    1  UNL1       -0.1939
     16  O3         2.1960    0.4680   -0.4440 O.3     1  UNL1       -0.2752
     17  C11        3.0400    0.0780    0.5810 C.3     1  UNL1        0.0983
     18  C12        4.4610    0.0040    0.1290 C.ar    1  UNL1       -0.0197
     19  C13        5.3240   -1.0110    0.4100 C.ar    1  UNL1       -0.0563
     20  C14        6.6600   -0.9980    0.0200 C.ar    1  UNL1       -0.0614
     21  C15        7.1520    0.0620   -0.6740 C.ar    1  UNL1       -0.0617
     22  C16        6.3050    1.1120   -0.9830 C.ar    1  UNL1       -0.0614
     23  C17        4.9900    1.0840   -0.5890 C.ar    1  UNL1       -0.0563
     24 H          -1.2620    1.8071    0.4217 H       1  UNL1        0.0424
     25 H          -1.7292    0.4969    1.5566 H       1  UNL1        0.0424
     26 H          -3.1249    0.3095   -3.4579 H       1  UNL1        0.1921
     27 H          -6.7843   -1.1246   -1.0424 H       1  UNL1        0.0625
     28 H          -7.2190   -1.2522    1.3405 H       1  UNL1        0.0618
     29 H          -5.5280   -0.6577    2.9356 H       1  UNL1        0.0618
     30 H          -3.3343    0.0944    2.1623 H       1  UNL1        0.0624
     31 H           0.7736    1.7150   -0.1992 H       1  UNL1        0.1825
     32 H           2.7370   -0.8865    0.9315 H       1  UNL1        0.0634
     33 H           2.9760    0.8074    1.3613 H       1  UNL1        0.0634
     34 H           4.9718   -1.8263    0.9356 H       1  UNL1        0.0621
     35 H           7.2757   -1.7915    0.2573 H       1  UNL1        0.0618
     36 H           8.1416    0.0836   -0.9659 H       1  UNL1        0.0618
     37 H           6.6642    1.9214   -1.5131 H       1  UNL1        0.0618
     38 H           4.3761    1.8785   -0.8278 H       1  UNL1        0.0621
@<TRIPOS>BOND
     1     1     2    2
     2     2     3    1
     3     2    15   am
     4     3     4    1
     5     4     5   ar
     6     4    14   ar
     7     5     6   ar
     8     6     7   ar
     9     7     8    2
    10     7     9   ar
    11     9    10   ar
    12     9    14   ar
    13    10    11   ar
    14    11    12   ar
    15    12    13   ar
    16    13    14   ar
    17    15    16    1
    18    16    17    1
    19    17    18    1
    20    18    19   ar
    21    18    23   ar
    22    19    20   ar
    23    20    21   ar
    24    21    22   ar
    25    22    23   ar
    26     3    24    1
    27     3    25    1
    28     6    26    1
    29    10    27    1
    30    11    28    1
    31    12    29    1
    32    13    30    1
    33    15    31    1
    34    17    32    1
    35    17    33    1
    36    19    34    1
    37    20    35    1
    38    21    36    1
    39    22    37    1
    40    23    38    1
@<TRIPOS>MOLECULE
../data/bude_mols_rdkit_confs2/molecule_35.pdb
 38 40 0 0 0
SMALL
GASTEIGER

@<TRIPOS>ATOM
      1  O1        -0.0570    0.8030    0.2370 O.2     1  UNL1       -0.2733
      2  C1         0.1260   -0.4460    0.4060 C.2     1  UNL1        0.2415
      3  C2         1.5170   -1.0110    0.4240 C.3     1  UNL1        0.0705
      4  C3         2.4490    0.1240    0.2370 C.ar    1  UNL1        0.0781
      5  N1         2.0890    1.3890    0.5840 N.ar    1  UNL1       -0.1748
      6  N2         2.9310    2.3880    0.3970 N.ar    1  UNL1       -0.2425
      7  C4         4.1540    2.2150   -0.1290 C.ar    1  UNL1        0.2725
      8  O2         4.9690    3.1560   -0.3130 O.2     1  UNL1       -0.2658
      9  C5         4.5900    0.9520   -0.5050 C.ar    1  UNL1        0.0496
     10  C6         5.8390    0.7480   -1.0400 C.ar    1  UNL1       -0.0487
     11  C7         6.2620   -0.5040   -1.4050 C.ar    1  UNL1       -0.0610
     12  C8         5.4080   -1.5670   -1.2240 C.ar    1  UNL1       -0.0611
     13  C9         4.1520   -1.3510   -0.6830 C.ar    1  UNL1       -0.0521
     14  C10        3.6910   -0.0980   -0.3040 C.ar    1  UNL1        0.0108
     15  N3        -1.0360   -1.2390    0.5700 N.am    1  UNL1       -0.1939
     16  O3        -2.2360   -0.6770    0.5470 O.3     1  UNL1       -0.2752
     17  C11       -3.2270   -1.3040   -0.1460 C.3     1  UNL1        0.0983
     18  C12       -4.4510   -0.4350    0.0060 C.ar    1  UNL1       -0.0197
     19  C13       -4.3880    0.8020    0.6520 C.ar    1  UNL1       -0.0563
     20  C14       -5.4520    1.6360    0.8230 C.ar    1  UNL1       -0.0614
     21  C15       -6.6740    1.2550    0.3370 C.ar    1  UNL1       -0.0617
     22  C16       -6.7850    0.0350   -0.3120 C.ar    1  UNL1       -0.0614
     23  C17       -5.6830   -0.8050   -0.4770 C.ar    1  UNL1       -0.0563
     24 H           1.6362   -1.7187   -0.3696 H       1  UNL1        0.0424
     25 H           1.7115   -1.5161    1.3470 H       1  UNL1        0.0424
     26 H           2.6510    3.2963    0.6535 H       1  UNL1        0.1921
     27 H           6.4713    1.5532   -1.1697 H       1  UNL1        0.0625
     28 H           7.2017   -0.6460   -1.8072 H       1  UNL1        0.0618
     29 H           5.7017   -2.5199   -1.4899 H       1  UNL1        0.0618
     30 H           3.5273   -2.1624   -0.5552 H       1  UNL1        0.0624
     31 H          -0.9520   -2.2111    0.7015 H       1  UNL1        0.1825
     32 H          -3.4081   -2.2767    0.2614 H       1  UNL1        0.0634
     33 H          -2.9642   -1.4362   -1.1748 H       1  UNL1        0.0634
     34 H          -3.4744    1.1045    1.0247 H       1  UNL1        0.0621
     35 H          -5.3387    2.5387    1.3101 H       1  UNL1        0.0618
     36 H          -7.4982    1.8654    0.4518 H       1  UNL1        0.0618
     37 H          -7.7029   -0.2584   -0.6813 H       1  UNL1        0.0618
     38 H          -5.7938   -1.7081   -0.9639 H       1  UNL1        0.0621
@<TRIPOS>BOND
     1     1     2    2
     2     2     3    1
     3     2    15   am
     4     3     4    1
     5     4     5   ar
     6     4    14   ar
     7     5     6   ar
     8     6     7   ar
     9     7     8    2
    10     7     9   ar
    11     9    10   ar
    12     9    14   ar
    13    10    11   ar
    14    11    12   ar
    15    12    13   ar
    16    13    14   ar
    17    15    16    1
    18    16    17    1
    19    17    18    1
    20    18    19   ar
    21    18    23   ar
    22    19    20   ar
    23    20    21   ar
    24    21    22   ar
    25    22    23   ar
    26     3    24    1
    27     3    25    1
    28     6    26    1
    29    10    27    1
    30    11    28    1
    31    12    29    1
    32    13    30    1
    33    15    31    1
    34    17    32    1
    35    17    33    1
    36    19    34    1
    37    20    35    1
    38    21    36    1
    39    22    37    1
    40    23    38    1
@<TRIPOS>MOLECULE
../data/bude_mols_rdkit_confs2/molecule_35.pdb
 38 40 0 0 0
SMALL
GASTEIGER

@<TRIPOS>ATOM
      1  O1         0.1270   -0.1210    0.8910 O.2     1  UNL1       -0.2733
      2  C1        -0.3190    0.8920    0.2500 C.2     1  UNL1        0.2415
      3  C2        -1.6500    1.4000    0.5400 C.3     1  UNL1        0.0705
      4  C3        -2.8110    0.7620   -0.0360 C.ar    1  UNL1        0.0781
      5  N1        -3.3910    1.3320   -1.1010 N.ar    1  UNL1       -0.1748
      6  N2        -4.4540    0.8350   -1.7270 N.ar    1  UNL1       -0.2425
      7  C4        -5.0360   -0.3320   -1.3020 C.ar    1  UNL1        0.2725
      8  O2        -6.0440   -0.7570   -1.9290 O.2     1  UNL1       -0.2658
      9  C5        -4.4780   -0.9490   -0.2170 C.ar    1  UNL1        0.0496
     10  C6        -5.0580   -2.1180    0.2160 C.ar    1  UNL1       -0.0487
     11  C7        -4.5470   -2.7960    1.3200 C.ar    1  UNL1       -0.0610
     12  C8        -3.4500   -2.2460    1.9500 C.ar    1  UNL1       -0.0611
     13  C9        -2.8650   -1.0780    1.5190 C.ar    1  UNL1       -0.0521
     14  C10       -3.3640   -0.3980    0.4150 C.ar    1  UNL1        0.0108
     15  N3         0.5850    1.4190   -0.7110 N.am    1  UNL1       -0.1939
     16  O3         1.8160    0.9120   -0.9060 O.3     1  UNL1       -0.2752
     17  C11        2.6750    1.2390    0.1370 C.3     1  UNL1        0.0983
     18  C12        4.0300    0.6670    0.0130 C.ar    1  UNL1       -0.0197
     19  C13        4.3740   -0.3740   -0.7930 C.ar    1  UNL1       -0.0563
     20  C14        5.6560   -0.8660   -0.8470 C.ar    1  UNL1       -0.0614
     21  C15        6.6580   -0.2920   -0.0590 C.ar    1  UNL1       -0.0617
     22  C16        6.3380    0.7630    0.7610 C.ar    1  UNL1       -0.0614
     23  C17        5.0400    1.2390    0.7970 C.ar    1  UNL1       -0.0563
     24 H          -1.6674    2.4203    0.2182 H       1  UNL1        0.0424
     25 H          -1.7612    1.2107    1.5872 H       1  UNL1        0.0424
     26 H          -4.8273    1.3101   -2.5042 H       1  UNL1        0.1921
     27 H          -5.8792   -2.4964   -0.2815 H       1  UNL1        0.0625
     28 H          -4.9723   -3.6752    1.6536 H       1  UNL1        0.0618
     29 H          -3.0546   -2.7273    2.7729 H       1  UNL1        0.0618
     30 H          -2.0457   -0.7024    2.0217 H       1  UNL1        0.0624
     31 H           0.2989    2.1868   -1.2568 H       1  UNL1        0.1825
     32 H           2.2439    0.8836    1.0495 H       1  UNL1        0.0634
     33 H           2.7895    2.3027    0.1163 H       1  UNL1        0.0634
     34 H           3.6478   -0.8086   -1.3835 H       1  UNL1        0.0621
     35 H           5.8790   -1.6588   -1.4689 H       1  UNL1        0.0618
     36 H           7.6234   -0.6552   -0.0927 H       1  UNL1        0.0618
     37 H           7.0651    1.1995    1.3491 H       1  UNL1        0.0618
     38 H           4.8106    2.0330    1.4150 H       1  UNL1        0.0621
@<TRIPOS>BOND
     1     1     2    2
     2     2     3    1
     3     2    15   am
     4     3     4    1
     5     4     5   ar
     6     4    14   ar
     7     5     6   ar
     8     6     7   ar
     9     7     8    2
    10     7     9   ar
    11     9    10   ar
    12     9    14   ar
    13    10    11   ar
    14    11    12   ar
    15    12    13   ar
    16    13    14   ar
    17    15    16    1
    18    16    17    1
    19    17    18    1
    20    18    19   ar
    21    18    23   ar
    22    19    20   ar
    23    20    21   ar
    24    21    22   ar
    25    22    23   ar
    26     3    24    1
    27     3    25    1
    28     6    26    1
    29    10    27    1
    30    11    28    1
    31    12    29    1
    32    13    30    1
    33    15    31    1
    34    17    32    1
    35    17    33    1
    36    19    34    1
    37    20    35    1
    38    21    36    1
    39    22    37    1
    40    23    38    1
@<TRIPOS>MOLECULE
../data/bude_mols_rdkit_confs2/molecule_35.pdb
 38 40 0 0 0
SMALL
GASTEIGER

@<TRIPOS>ATOM
      1  O1        -0.5410   -2.4980    0.7820 O.2     1  UNL1       -0.2733
      2  C1         0.2370   -1.5290    1.0280 C.2     1  UNL1        0.2415
      3  C2         1.4650   -1.7010    1.8520 C.3     1  UNL1        0.0705
      4  C3         2.2820   -0.4520    1.7220 C.ar    1  UNL1        0.0781
      5  N1         2.3470    0.4660    2.6710 N.ar    1  UNL1       -0.1748
      6  N2         3.0720    1.5610    2.5450 N.ar    1  UNL1       -0.2425
      7  C4         3.7920    1.8040    1.4270 C.ar    1  UNL1        0.2725
      8  O2         4.4870    2.8460    1.2980 O.2     1  UNL1       -0.2658
      9  C5         3.7780    0.8970    0.3910 C.ar    1  UNL1        0.0496
     10  C6         4.5140    1.1270   -0.7650 C.ar    1  UNL1       -0.0487
     11  C7         4.4730    0.1940   -1.7740 C.ar    1  UNL1       -0.0610
     12  C8         3.6990   -0.9480   -1.6050 C.ar    1  UNL1       -0.0611
     13  C9         2.9700   -1.1780   -0.4630 C.ar    1  UNL1       -0.0521
     14  C10        3.0110   -0.2460    0.5430 C.ar    1  UNL1        0.0108
     15  N3        -0.1140   -0.2660    0.4820 N.am    1  UNL1       -0.1939
     16  O3        -1.2440   -0.0790   -0.2790 O.3     1  UNL1       -0.2752
     17  C11       -2.3480   -0.1020    0.5820 C.3     1  UNL1        0.0983
     18  C12       -3.5700    0.1120   -0.2070 C.ar    1  UNL1       -0.0197
     19  C13       -4.0610    1.3790   -0.4970 C.ar    1  UNL1       -0.0563
     20  C14       -5.2150    1.5360   -1.2290 C.ar    1  UNL1       -0.0614
     21  C15       -5.9350    0.4600   -1.7080 C.ar    1  UNL1       -0.0617
     22  C16       -5.4330   -0.7840   -1.4110 C.ar    1  UNL1       -0.0614
     23  C17       -4.2670   -0.9770   -0.6720 C.ar    1  UNL1       -0.0563
     24 H           2.0257   -2.5412    1.4988 H       1  UNL1        0.0424
     25 H           1.2070   -1.8741    2.8759 H       1  UNL1        0.0424
     26 H           3.0890    2.2150    3.2807 H       1  UNL1        0.1921
     27 H           5.0815    1.9832   -0.8644 H       1  UNL1        0.0625
     28 H           5.0089    0.3394   -2.6439 H       1  UNL1        0.0618
     29 H           3.6708   -1.6474   -2.3633 H       1  UNL1        0.0618
     30 H           2.4031   -2.0346   -0.3641 H       1  UNL1        0.0624
     31 H           0.4737    0.5047    0.6548 H       1  UNL1        0.1825
     32 H          -2.2508    0.6744    1.3119 H       1  UNL1        0.0634
     33 H          -2.3992   -1.0468    1.0817 H       1  UNL1        0.0634
     34 H          -3.5540    2.2120   -0.1593 H       1  UNL1        0.0621
     35 H          -5.5540    2.4905   -1.4268 H       1  UNL1        0.0618
     36 H          -6.8000    0.5828   -2.2572 H       1  UNL1        0.0618
     37 H          -5.9430   -1.6143   -1.7509 H       1  UNL1        0.0618
     38 H          -3.9292   -1.9321   -0.4753 H       1  UNL1        0.0621
@<TRIPOS>BOND
     1     1     2    2
     2     2     3    1
     3     2    15   am
     4     3     4    1
     5     4     5   ar
     6     4    14   ar
     7     5     6   ar
     8     6     7   ar
     9     7     8    2
    10     7     9   ar
    11     9    10   ar
    12     9    14   ar
    13    10    11   ar
    14    11    12   ar
    15    12    13   ar
    16    13    14   ar
    17    15    16    1
    18    16    17    1
    19    17    18    1
    20    18    19   ar
    21    18    23   ar
    22    19    20   ar
    23    20    21   ar
    24    21    22   ar
    25    22    23   ar
    26     3    24    1
    27     3    25    1
    28     6    26    1
    29    10    27    1
    30    11    28    1
    31    12    29    1
    32    13    30    1
    33    15    31    1
    34    17    32    1
    35    17    33    1
    36    19    34    1
    37    20    35    1
    38    21    36    1
    39    22    37    1
    40    23    38    1
@<TRIPOS>MOLECULE
../data/bude_mols_rdkit_confs2/molecule_35.pdb
 38 40 0 0 0
SMALL
GASTEIGER

@<TRIPOS>ATOM
      1  O1         0.4140   -1.3420    1.5420 O.2     1  UNL1       -0.2733
      2  C1        -0.0240   -0.4460    0.7740 C.2     1  UNL1        0.2415
      3  C2        -1.4180    0.0740    0.8990 C.3     1  UNL1        0.0705
      4  C3        -2.4800   -0.7590    0.4200 C.ar    1  UNL1        0.0781
      5  N1        -2.3840   -2.0670    0.2280 N.ar    1  UNL1       -0.1748
      6  N2        -3.4050   -2.7920   -0.2440 N.ar    1  UNL1       -0.2425
      7  C4        -4.5790   -2.2290   -0.5440 C.ar    1  UNL1        0.2725
      8  O2        -5.5170   -2.9550   -0.9860 O.2     1  UNL1       -0.2658
      9  C5        -4.7460   -0.8780   -0.3660 C.ar    1  UNL1        0.0496
     10  C6        -5.9780   -0.3330   -0.6840 C.ar    1  UNL1       -0.0487
     11  C7        -6.1260    1.0330   -0.4910 C.ar    1  UNL1       -0.0610
     12  C8        -5.0850    1.7900   -0.0080 C.ar    1  UNL1       -0.0611
     13  C9        -3.8560    1.2260    0.3050 C.ar    1  UNL1       -0.0521
     14  C10       -3.6980   -0.1330    0.1180 C.ar    1  UNL1        0.0108
     15  N3         0.8110    0.0790   -0.2250 N.am    1  UNL1       -0.1939
     16  O3         2.1010   -0.2170   -0.4920 O.3     1  UNL1       -0.2752
     17  C11        2.9040    0.3890    0.4870 C.3     1  UNL1        0.0983
     18  C12        4.3470    0.3270    0.2260 C.ar    1  UNL1       -0.0197
     19  C13        5.0600    1.5570    0.1310 C.ar    1  UNL1       -0.0563
     20  C14        6.4060    1.6000   -0.1230 C.ar    1  UNL1       -0.0614
     21  C15        7.1670    0.4500   -0.3120 C.ar    1  UNL1       -0.0617
     22  C16        6.4800   -0.7350   -0.2220 C.ar    1  UNL1       -0.0614
     23  C17        5.1050   -0.8050    0.0400 C.ar    1  UNL1       -0.0563
     24 H          -1.4656    0.9964    0.3588 H       1  UNL1        0.0424
     25 H          -1.5865    0.1515    1.9528 H       1  UNL1        0.0424
     26 H          -3.2886   -3.7610   -0.3730 H       1  UNL1        0.1921
     27 H          -6.7493   -0.9146   -1.0471 H       1  UNL1        0.0625
     28 H          -7.0268    1.4854   -0.7123 H       1  UNL1        0.0618
     29 H          -5.2209    2.8043    0.1254 H       1  UNL1        0.0618
     30 H          -3.0826    1.8056    0.6670 H       1  UNL1        0.0624
     31 H           0.3999    0.7552   -0.8107 H       1  UNL1        0.1825
     32 H           2.7137   -0.0972    1.4210 H       1  UNL1        0.0634
     33 H           2.6432    1.4267    0.4897 H       1  UNL1        0.0634
     34 H           4.5467    2.4433    0.2574 H       1  UNL1        0.0621
     35 H           6.8726    2.5190   -0.1761 H       1  UNL1        0.0618
     36 H           8.1798    0.4858   -0.5067 H       1  UNL1        0.0618
     37 H           7.0008   -1.6162   -0.3535 H       1  UNL1        0.0618
     38 H           4.6499   -1.7296    0.0947 H       1  UNL1        0.0621
@<TRIPOS>BOND
     1     1     2    2
     2     2     3    1
     3     2    15   am
     4     3     4    1
     5     4     5   ar
     6     4    14   ar
     7     5     6   ar
     8     6     7   ar
     9     7     8    2
    10     7     9   ar
    11     9    10   ar
    12     9    14   ar
    13    10    11   ar
    14    11    12   ar
    15    12    13   ar
    16    13    14   ar
    17    15    16    1
    18    16    17    1
    19    17    18    1
    20    18    19   ar
    21    18    23   ar
    22    19    20   ar
    23    20    21   ar
    24    21    22   ar
    25    22    23   ar
    26     3    24    1
    27     3    25    1
    28     6    26    1
    29    10    27    1
    30    11    28    1
    31    12    29    1
    32    13    30    1
    33    15    31    1
    34    17    32    1
    35    17    33    1
    36    19    34    1
    37    20    35    1
    38    21    36    1
    39    22    37    1
    40    23    38    1
@<TRIPOS>MOLECULE
../data/bude_mols_rdkit_confs2/molecule_35.pdb
 38 40 0 0 0
SMALL
GASTEIGER

@<TRIPOS>ATOM
      1  O1        -0.6450   -1.6390    1.2720 O.2     1  UNL1       -0.2733
      2  C1        -0.1140   -1.1280    0.1830 C.2     1  UNL1        0.2415
      3  C2        -0.9510   -1.2950   -1.0040 C.3     1  UNL1        0.0705
      4  C3        -2.3890   -1.4480   -0.6140 C.ar    1  UNL1        0.0781
      5  N1        -3.0430   -2.6100   -0.6200 N.ar    1  UNL1       -0.1748
      6  N2        -4.3350   -2.7160   -0.2890 N.ar    1  UNL1       -0.2425
      7  C4        -4.9780   -1.5970    0.0600 C.ar    1  UNL1        0.2725
      8  O2        -6.1970   -1.6770    0.3730 O.2     1  UNL1       -0.2658
      9  C5        -4.4130   -0.3500    0.1030 C.ar    1  UNL1        0.0496
     10  C6        -5.0860    0.7960    0.4680 C.ar    1  UNL1       -0.0487
     11  C7        -4.4620    2.0490    0.5050 C.ar    1  UNL1       -0.0610
     12  C8        -3.1460    2.0860    0.1600 C.ar    1  UNL1       -0.0611
     13  C9        -2.4700    0.9320   -0.2100 C.ar    1  UNL1       -0.0521
     14  C10       -3.0770   -0.2950   -0.2460 C.ar    1  UNL1        0.0108
     15  N3         1.1440   -0.5060    0.3170 N.am    1  UNL1       -0.1939
     16  O3         1.7570   -0.4500    1.5250 O.3     1  UNL1       -0.2752
     17  C11        3.0770   -0.7720    1.3960 C.3     1  UNL1        0.0983
     18  C12        3.8690    0.1270    0.5440 C.ar    1  UNL1       -0.0197
     19  C13        4.3900    1.2900    1.1190 C.ar    1  UNL1       -0.0563
     20  C14        5.1630    2.1160    0.3400 C.ar    1  UNL1       -0.0614
     21  C15        5.4310    1.8260   -0.9770 C.ar    1  UNL1       -0.0617
     22  C16        4.8940    0.6670   -1.5090 C.ar    1  UNL1       -0.0614
     23  C17        4.1130   -0.1990   -0.7770 C.ar    1  UNL1       -0.0563
     24 H          -0.6359   -2.1675   -1.5372 H       1  UNL1        0.0424
     25 H          -0.8505   -0.4282   -1.6233 H       1  UNL1        0.0424
     26 H          -4.7953   -3.5861   -0.3020 H       1  UNL1        0.1921
     27 H          -6.0838    0.7284    0.7227 H       1  UNL1        0.0625
     28 H          -4.9743    2.9016    0.7801 H       1  UNL1        0.0618
     29 H          -2.6427    2.9868    0.1738 H       1  UNL1        0.0618
     30 H          -1.4730    1.0010   -0.4675 H       1  UNL1        0.0624
     31 H           1.5802   -0.1098   -0.4717 H       1  UNL1        0.1825
     32 H           3.1368   -1.7565    0.9811 H       1  UNL1        0.0634
     33 H           3.4958   -0.6903    2.3772 H       1  UNL1        0.0634
     34 H           4.1982    1.5225    2.1060 H       1  UNL1        0.0621
     35 H           5.5529    2.9771    0.7542 H       1  UNL1        0.0618
     36 H           6.0150    2.4537   -1.5514 H       1  UNL1        0.0618
     37 H           5.0873    0.4419   -2.4974 H       1  UNL1        0.0618
     38 H           3.7251   -1.0577   -1.1980 H       1  UNL1        0.0621
@<TRIPOS>BOND
     1     1     2    2
     2     2     3    1
     3     2    15   am
     4     3     4    1
     5     4     5   ar
     6     4    14   ar
     7     5     6   ar
     8     6     7   ar
     9     7     8    2
    10     7     9   ar
    11     9    10   ar
    12     9    14   ar
    13    10    11   ar
    14    11    12   ar
    15    12    13   ar
    16    13    14   ar
    17    15    16    1
    18    16    17    1
    19    17    18    1
    20    18    19   ar
    21    18    23   ar
    22    19    20   ar
    23    20    21   ar
    24    21    22   ar
    25    22    23   ar
    26     3    24    1
    27     3    25    1
    28     6    26    1
    29    10    27    1
    30    11    28    1
    31    12    29    1
    32    13    30    1
    33    15    31    1
    34    17    32    1
    35    17    33    1
    36    19    34    1
    37    20    35    1
    38    21    36    1
    39    22    37    1
    40    23    38    1
@<TRIPOS>MOLECULE
../data/bude_mols_rdkit_confs2/molecule_35.pdb
 38 40 0 0 0
SMALL
GASTEIGER

@<TRIPOS>ATOM
      1  O1        -0.6650    0.3140    1.2110 O.2     1  UNL1       -0.2733
      2  C1        -0.0440    0.3690    0.1280 C.2     1  UNL1        0.2415
      3  C2        -0.5600   -0.3970   -1.0320 C.3     1  UNL1        0.0705
      4  C3        -1.7850   -1.1150   -0.6220 C.ar    1  UNL1        0.0781
      5  N1        -1.8080   -2.4390   -0.3930 N.ar    1  UNL1       -0.1748
      6  N2        -2.8690   -3.1190   -0.0370 N.ar    1  UNL1       -0.2425
      7  C4        -4.0430   -2.5100    0.1280 C.ar    1  UNL1        0.2725
      8  O2        -5.0890   -3.1420    0.4730 O.2     1  UNL1       -0.2658
      9  C5        -4.1330   -1.1520   -0.0810 C.ar    1  UNL1        0.0496
     10  C6        -5.3550   -0.4880    0.0860 C.ar    1  UNL1       -0.0487
     11  C7        -5.4060    0.8710   -0.1310 C.ar    1  UNL1       -0.0610
     12  C8        -4.2580    1.5370   -0.5040 C.ar    1  UNL1       -0.0611
     13  C9        -3.0440    0.8840   -0.6710 C.ar    1  UNL1       -0.0521
     14  C10       -3.0000   -0.4620   -0.4550 C.ar    1  UNL1        0.0108
     15  N3         1.1190    1.1640    0.0770 N.am    1  UNL1       -0.1939
     16  O3         1.5870    1.8600    1.1340 O.3     1  UNL1       -0.2752
     17  C11        2.5430    1.0270    1.7650 C.3     1  UNL1        0.0983
     18  C12        3.6080    0.7290    0.7800 C.ar    1  UNL1       -0.0197
     19  C13        4.7100    1.5390    0.6550 C.ar    1  UNL1       -0.0563
     20  C14        5.7200    1.2960   -0.2510 C.ar    1  UNL1       -0.0614
     21  C15        5.5980    0.1840   -1.0590 C.ar    1  UNL1       -0.0617
     22  C16        4.5080   -0.6630   -0.9710 C.ar    1  UNL1       -0.0614
     23  C17        3.5120   -0.3730   -0.0370 C.ar    1  UNL1       -0.0563
     24 H           0.1782   -1.1009   -1.3552 H       1  UNL1        0.0424
     25 H          -0.7825    0.2703   -1.8383 H       1  UNL1        0.0424
     26 H          -2.7988   -4.0899    0.1102 H       1  UNL1        0.1921
     27 H          -6.2014   -1.0076    0.3665 H       1  UNL1        0.0625
     28 H          -6.2934    1.3850   -0.0157 H       1  UNL1        0.0618
     29 H          -4.3024    2.5555   -0.6646 H       1  UNL1        0.0618
     30 H          -2.1974    1.4034   -0.9512 H       1  UNL1        0.0624
     31 H           1.6145    1.2139   -0.7722 H       1  UNL1        0.1825
     32 H           2.0784    0.1176    2.0844 H       1  UNL1        0.0634
     33 H           2.9550    1.5161    2.6229 H       1  UNL1        0.0634
     34 H           4.7853    2.3667    1.2668 H       1  UNL1        0.0621
     35 H           6.5370    1.9224   -0.3224 H       1  UNL1        0.0618
     36 H           6.3394   -0.0210   -1.7469 H       1  UNL1        0.0618
     37 H           4.4328   -1.4910   -1.5823 H       1  UNL1        0.0618
     38 H           2.6919   -0.9945    0.0415 H       1  UNL1        0.0621
@<TRIPOS>BOND
     1     1     2    2
     2     2     3    1
     3     2    15   am
     4     3     4    1
     5     4     5   ar
     6     4    14   ar
     7     5     6   ar
     8     6     7   ar
     9     7     8    2
    10     7     9   ar
    11     9    10   ar
    12     9    14   ar
    13    10    11   ar
    14    11    12   ar
    15    12    13   ar
    16    13    14   ar
    17    15    16    1
    18    16    17    1
    19    17    18    1
    20    18    19   ar
    21    18    23   ar
    22    19    20   ar
    23    20    21   ar
    24    21    22   ar
    25    22    23   ar
    26     3    24    1
    27     3    25    1
    28     6    26    1
    29    10    27    1
    30    11    28    1
    31    12    29    1
    32    13    30    1
    33    15    31    1
    34    17    32    1
    35    17    33    1
    36    19    34    1
    37    20    35    1
    38    21    36    1
    39    22    37    1
    40    23    38    1
@<TRIPOS>MOLECULE
../data/bude_mols_rdkit_confs2/molecule_35.pdb
 38 40 0 0 0
SMALL
GASTEIGER

@<TRIPOS>ATOM
      1  O1         0.6930   -2.7720    0.5200 O.2     1  UNL1       -0.2733
      2  C1        -0.0200   -1.8820   -0.0520 C.2     1  UNL1        0.2415
      3  C2        -1.4680   -1.9340    0.2150 C.3     1  UNL1        0.0705
      4  C3        -2.2900   -0.9580   -0.5080 C.ar    1  UNL1        0.0781
      5  N1        -2.0080   -0.5360   -1.7470 N.ar    1  UNL1       -0.1748
      6  N2        -2.7420    0.3750   -2.3490 N.ar    1  UNL1       -0.2425
      7  C4        -3.8070    0.9410   -1.7920 C.ar    1  UNL1        0.2725
      8  O2        -4.5040    1.8080   -2.3680 O.2     1  UNL1       -0.2658
      9  C5        -4.1630    0.5550   -0.5110 C.ar    1  UNL1        0.0496
     10  C6        -5.2840    1.1220    0.0950 C.ar    1  UNL1       -0.0487
     11  C7        -5.6430    0.7310    1.3590 C.ar    1  UNL1       -0.0610
     12  C8        -4.9160   -0.2080    2.0300 C.ar    1  UNL1       -0.0611
     13  C9        -3.8030   -0.7510    1.3870 C.ar    1  UNL1       -0.0521
     14  C10       -3.3920   -0.4000    0.1240 C.ar    1  UNL1        0.0108
     15  N3         0.6690   -0.9660   -0.8590 N.am    1  UNL1       -0.1939
     16  O3         2.0450   -1.0120   -1.0200 O.3     1  UNL1       -0.2752
     17  C11        2.4800    0.0670   -0.2560 C.3     1  UNL1        0.0983
     18  C12        3.8970    0.3220   -0.1990 C.ar    1  UNL1       -0.0197
     19  C13        4.3570    1.6420   -0.2830 C.ar    1  UNL1       -0.0563
     20  C14        5.6690    1.9990   -0.2240 C.ar    1  UNL1       -0.0614
     21  C15        6.6310    1.0390   -0.0740 C.ar    1  UNL1       -0.0617
     22  C16        6.2250   -0.2910    0.0130 C.ar    1  UNL1       -0.0614
     23  C17        4.8860   -0.6230   -0.0500 C.ar    1  UNL1       -0.0563
     24 H          -1.6138   -1.7728    1.2627 H       1  UNL1        0.0424
     25 H          -1.7907   -2.8944   -0.1290 H       1  UNL1        0.0424
     26 H          -2.4889    0.6515   -3.2593 H       1  UNL1        0.1921
     27 H          -5.8405    1.8324   -0.4057 H       1  UNL1        0.0625
     28 H          -6.4719    1.1515    1.8075 H       1  UNL1        0.0618
     29 H          -5.1804   -0.5070    2.9817 H       1  UNL1        0.0618
     30 H          -3.2528   -1.4625    1.8931 H       1  UNL1        0.0624
     31 H           0.1584   -0.2665   -1.3272 H       1  UNL1        0.1825
     32 H           2.1445   -0.0962    0.7469 H       1  UNL1        0.0634
     33 H           2.0711    0.9261   -0.7456 H       1  UNL1        0.0634
     34 H           3.6568    2.3915   -0.3969 H       1  UNL1        0.0621
     35 H           5.9375    2.9931   -0.2924 H       1  UNL1        0.0618
     36 H           7.6302    1.2925   -0.0265 H       1  UNL1        0.0618
     37 H           6.9314   -1.0349    0.1256 H       1  UNL1        0.0618
     38 H           4.6171   -1.6171    0.0172 H       1  UNL1        0.0621
@<TRIPOS>BOND
     1     1     2    2
     2     2     3    1
     3     2    15   am
     4     3     4    1
     5     4     5   ar
     6     4    14   ar
     7     5     6   ar
     8     6     7   ar
     9     7     8    2
    10     7     9   ar
    11     9    10   ar
    12     9    14   ar
    13    10    11   ar
    14    11    12   ar
    15    12    13   ar
    16    13    14   ar
    17    15    16    1
    18    16    17    1
    19    17    18    1
    20    18    19   ar
    21    18    23   ar
    22    19    20   ar
    23    20    21   ar
    24    21    22   ar
    25    22    23   ar
    26     3    24    1
    27     3    25    1
    28     6    26    1
    29    10    27    1
    30    11    28    1
    31    12    29    1
    32    13    30    1
    33    15    31    1
    34    17    32    1
    35    17    33    1
    36    19    34    1
    37    20    35    1
    38    21    36    1
    39    22    37    1
    40    23    38    1
@<TRIPOS>MOLECULE
../data/bude_mols_rdkit_confs2/molecule_35.pdb
 38 40 0 0 0
SMALL
GASTEIGER

@<TRIPOS>ATOM
      1  O1        -0.9400   -1.6500   -0.7130 O.2     1  UNL1       -0.2733
      2  C1        -0.2720   -1.1780    0.2380 C.2     1  UNL1        0.2415
      3  C2        -0.8940   -0.5040    1.4100 C.3     1  UNL1        0.0705
      4  C3        -2.3770   -0.4970    1.2480 C.ar    1  UNL1        0.0781
      5  N1        -3.1710   -1.3330    1.9400 N.ar    1  UNL1       -0.1748
      6  N2        -4.4850   -1.3470    1.8160 N.ar    1  UNL1       -0.2425
      7  C4        -5.1090   -0.5150    0.9800 C.ar    1  UNL1        0.2725
      8  O2        -6.3620   -0.5310    0.8650 O.2     1  UNL1       -0.2658
      9  C5        -4.3830    0.3900    0.2170 C.ar    1  UNL1        0.0496
     10  C6        -5.0080    1.2600   -0.6540 C.ar    1  UNL1       -0.0487
     11  C7        -4.1930    2.1180   -1.3640 C.ar    1  UNL1       -0.0610
     12  C8        -2.8210    2.1220   -1.2250 C.ar    1  UNL1       -0.0611
     13  C9        -2.2120    1.2440   -0.3480 C.ar    1  UNL1       -0.0521
     14  C10       -3.0120    0.3800    0.3690 C.ar    1  UNL1        0.0108
     15  N3         1.1530   -1.3120    0.1600 N.am    1  UNL1       -0.1939
     16  O3         1.7220   -1.9230   -0.9000 O.3     1  UNL1       -0.2752
     17  C11        3.0800   -2.0510   -0.6410 C.3     1  UNL1        0.0983
     18  C12        3.7840   -0.7790   -0.4350 C.ar    1  UNL1       -0.0197
     19  C13        3.2080    0.4760   -0.6100 C.ar    1  UNL1       -0.0563
     20  C14        3.9470    1.6160   -0.3900 C.ar    1  UNL1       -0.0614
     21  C15        5.2630    1.5250    0.0050 C.ar    1  UNL1       -0.0617
     22  C16        5.8290    0.2840    0.1770 C.ar    1  UNL1       -0.0614
     23  C17        5.1120   -0.8580   -0.0360 C.ar    1  UNL1       -0.0563
     24 H          -0.5371    0.5027    1.4738 H       1  UNL1        0.0424
     25 H          -0.6346   -1.0308    2.3045 H       1  UNL1        0.0424
     26 H          -5.0142   -1.9827    2.3499 H       1  UNL1        0.1921
     27 H          -6.0336    1.2683   -0.7684 H       1  UNL1        0.0625
     28 H          -4.6269    2.7820   -2.0242 H       1  UNL1        0.0618
     29 H          -2.2487    2.7807   -1.7759 H       1  UNL1        0.0618
     30 H          -1.1864    1.2355   -0.2331 H       1  UNL1        0.0624
     31 H           1.7190   -0.9567    0.8829 H       1  UNL1        0.1825
     32 H           3.5325   -2.5526   -1.4708 H       1  UNL1        0.0634
     33 H           3.1645   -2.5970    0.2753 H       1  UNL1        0.0634
     34 H           2.2223    0.5520   -0.9061 H       1  UNL1        0.0621
     35 H           3.5130    2.5430   -0.5216 H       1  UNL1        0.0618
     36 H           5.8183    2.3790    0.1701 H       1  UNL1        0.0618
     37 H           6.8152    0.2144    0.4729 H       1  UNL1        0.0618
     38 H           5.5565   -1.7795    0.0994 H       1  UNL1        0.0621
@<TRIPOS>BOND
     1     1     2    2
     2     2     3    1
     3     2    15   am
     4     3     4    1
     5     4     5   ar
     6     4    14   ar
     7     5     6   ar
     8     6     7   ar
     9     7     8    2
    10     7     9   ar
    11     9    10   ar
    12     9    14   ar
    13    10    11   ar
    14    11    12   ar
    15    12    13   ar
    16    13    14   ar
    17    15    16    1
    18    16    17    1
    19    17    18    1
    20    18    19   ar
    21    18    23   ar
    22    19    20   ar
    23    20    21   ar
    24    21    22   ar
    25    22    23   ar
    26     3    24    1
    27     3    25    1
    28     6    26    1
    29    10    27    1
    30    11    28    1
    31    12    29    1
    32    13    30    1
    33    15    31    1
    34    17    32    1
    35    17    33    1
    36    19    34    1
    37    20    35    1
    38    21    36    1
    39    22    37    1
    40    23    38    1
@<TRIPOS>MOLECULE
../data/bude_mols_rdkit_confs2/molecule_35.pdb
 38 40 0 0 0
SMALL
GASTEIGER

@<TRIPOS>ATOM
      1  O1        -0.3630    1.1880    0.2990 O.2     1  UNL1       -0.2733
      2  C1        -0.4090    0.6440   -0.8670 C.2     1  UNL1        0.2415
      3  C2        -1.5900    0.9320   -1.7020 C.3     1  UNL1        0.0705
      4  C3        -2.7140    1.3180   -0.8440 C.ar    1  UNL1        0.0781
      5  N1        -3.1130    2.5700   -0.6320 N.ar    1  UNL1       -0.1748
      6  N2        -4.1340    2.8130    0.1680 N.ar    1  UNL1       -0.2425
      7  C4        -4.8110    1.8270    0.7960 C.ar    1  UNL1        0.2725
      8  O2        -5.7960    2.0930    1.5630 O.2     1  UNL1       -0.2658
      9  C5        -4.4460    0.5080    0.6190 C.ar    1  UNL1        0.0496
     10  C6        -5.1150   -0.5390    1.2510 C.ar    1  UNL1       -0.0487
     11  C7        -4.7360   -1.8420    1.0620 C.ar    1  UNL1       -0.0610
     12  C8        -3.6590   -2.0930    0.2150 C.ar    1  UNL1       -0.0611
     13  C9        -3.0080   -1.0370   -0.4030 C.ar    1  UNL1       -0.0521
     14  C10       -3.3800    0.2710   -0.2170 C.ar    1  UNL1        0.0108
     15  N3         0.6750   -0.1930   -1.2360 N.am    1  UNL1       -0.1939
     16  O3         1.7170   -0.4130   -0.3950 O.3     1  UNL1       -0.2752
     17  C11        2.8620   -0.2130   -1.2020 C.3     1  UNL1        0.0983
     18  C12        4.1050   -0.3970   -0.4740 C.ar    1  UNL1       -0.0197
     19  C13        4.4680    0.6100    0.4250 C.ar    1  UNL1       -0.0563
     20  C14        5.6030    0.5130    1.1710 C.ar    1  UNL1       -0.0614
     21  C15        6.4480   -0.5830    1.0740 C.ar    1  UNL1       -0.0617
     22  C16        6.0970   -1.5770    0.1940 C.ar    1  UNL1       -0.0614
     23  C17        4.9400   -1.4760   -0.5660 C.ar    1  UNL1       -0.0563
     24 H          -1.8523    0.0586   -2.2618 H       1  UNL1        0.0424
     25 H          -1.3639    1.7328   -2.3746 H       1  UNL1        0.0424
     26 H          -4.4123    3.7463    0.3123 H       1  UNL1        0.1921
     27 H          -5.9110   -0.3286    1.8732 H       1  UNL1        0.0625
     28 H          -5.2333   -2.6140    1.5328 H       1  UNL1        0.0618
     29 H          -3.3468   -3.0624    0.0482 H       1  UNL1        0.0618
     30 H          -2.2124   -1.2422   -1.0275 H       1  UNL1        0.0624
     31 H           0.6714   -0.6236   -2.1213 H       1  UNL1        0.1825
     32 H           2.8372    0.7843   -1.5888 H       1  UNL1        0.0634
     33 H           2.8360   -0.9436   -1.9833 H       1  UNL1        0.0634
     34 H           3.8652    1.4416    0.5251 H       1  UNL1        0.0621
     35 H           5.8408    1.2746    1.8256 H       1  UNL1        0.0618
     36 H           7.3075   -0.6487    1.6415 H       1  UNL1        0.0618
     37 H           6.7003   -2.4086    0.0966 H       1  UNL1        0.0618
     38 H           4.7028   -2.2381   -1.2202 H       1  UNL1        0.0621
@<TRIPOS>BOND
     1     1     2    2
     2     2     3    1
     3     2    15   am
     4     3     4    1
     5     4     5   ar
     6     4    14   ar
     7     5     6   ar
     8     6     7   ar
     9     7     8    2
    10     7     9   ar
    11     9    10   ar
    12     9    14   ar
    13    10    11   ar
    14    11    12   ar
    15    12    13   ar
    16    13    14   ar
    17    15    16    1
    18    16    17    1
    19    17    18    1
    20    18    19   ar
    21    18    23   ar
    22    19    20   ar
    23    20    21   ar
    24    21    22   ar
    25    22    23   ar
    26     3    24    1
    27     3    25    1
    28     6    26    1
    29    10    27    1
    30    11    28    1
    31    12    29    1
    32    13    30    1
    33    15    31    1
    34    17    32    1
    35    17    33    1
    36    19    34    1
    37    20    35    1
    38    21    36    1
    39    22    37    1
    40    23    38    1
@<TRIPOS>MOLECULE
../data/bude_mols_rdkit_confs2/molecule_35.pdb
 38 40 0 0 0
SMALL
GASTEIGER

@<TRIPOS>ATOM
      1  O1        -0.3530    0.5130    1.0680 O.2     1  UNL1       -0.2733
      2  C1        -0.2530   -0.1230   -0.0180 C.2     1  UNL1        0.2415
      3  C2        -1.4610   -0.1790   -0.9450 C.3     1  UNL1        0.0705
      4  C3        -2.5660    0.5130   -0.3200 C.ar    1  UNL1        0.0781
      5  N1        -2.3480    1.8210    0.0330 N.ar    1  UNL1       -0.1748
      6  N2        -3.2140    2.5630    0.6720 N.ar    1  UNL1       -0.2425
      7  C4        -4.4210    2.0850    1.0380 C.ar    1  UNL1        0.2725
      8  O2        -5.2800    2.7550    1.6490 O.2     1  UNL1       -0.2658
      9  C5        -4.7110    0.7720    0.7130 C.ar    1  UNL1        0.0496
     10  C6        -5.9470    0.2190    0.9850 C.ar    1  UNL1       -0.0487
     11  C7        -6.2870   -1.0440    0.6210 C.ar    1  UNL1       -0.0610
     12  C8        -5.3400   -1.7930   -0.0510 C.ar    1  UNL1       -0.0611
     13  C9        -4.1040   -1.2890   -0.3400 C.ar    1  UNL1       -0.0521
     14  C10       -3.7930   -0.0060    0.0420 C.ar    1  UNL1        0.0108
     15  N3         0.9360   -0.7660   -0.3890 N.am    1  UNL1       -0.1939
     16  O3         2.0730   -0.7010    0.3590 O.3     1  UNL1       -0.2752
     17  C11        3.0890   -0.3470   -0.5540 C.3     1  UNL1        0.0983
     18  C12        4.4360   -0.2060   -0.0130 C.ar    1  UNL1       -0.0197
     19  C13        4.9860    1.0580    0.2400 C.ar    1  UNL1       -0.0563
     20  C14        6.2880    1.1580    0.7160 C.ar    1  UNL1       -0.0614
     21  C15        7.0780    0.0540    0.9570 C.ar    1  UNL1       -0.0617
     22  C16        6.5460   -1.1930    0.7140 C.ar    1  UNL1       -0.0614
     23  C17        5.2560   -1.2840    0.2400 C.ar    1  UNL1       -0.0563
     24 H          -1.7305   -1.1993   -1.1219 H       1  UNL1        0.0424
     25 H          -1.2230    0.2880   -1.8778 H       1  UNL1        0.0424
     26 H          -2.9794    3.4936    0.8915 H       1  UNL1        0.1921
     27 H          -6.6433    0.7915    1.4874 H       1  UNL1        0.0625
     28 H          -7.2188   -1.4306    0.8383 H       1  UNL1        0.0618
     29 H          -5.5721   -2.7557   -0.3413 H       1  UNL1        0.0618
     30 H          -3.4101   -1.8661   -0.8405 H       1  UNL1        0.0624
     31 H           0.9501   -1.2862   -1.2247 H       1  UNL1        0.1825
     32 H           2.8170    0.5893   -0.9947 H       1  UNL1        0.0634
     33 H           3.1464   -1.1648   -1.2416 H       1  UNL1        0.0634
     34 H           4.4274    1.9097    0.0738 H       1  UNL1        0.0621
     35 H           6.6790    2.0959    0.8962 H       1  UNL1        0.0618
     36 H           8.0420    0.1592    1.3100 H       1  UNL1        0.0618
     37 H           7.1042   -2.0442    0.8841 H       1  UNL1        0.0618
     38 H           4.8765   -2.2270    0.0616 H       1  UNL1        0.0621
@<TRIPOS>BOND
     1     1     2    2
     2     2     3    1
     3     2    15   am
     4     3     4    1
     5     4     5   ar
     6     4    14   ar
     7     5     6   ar
     8     6     7   ar
     9     7     8    2
    10     7     9   ar
    11     9    10   ar
    12     9    14   ar
    13    10    11   ar
    14    11    12   ar
    15    12    13   ar
    16    13    14   ar
    17    15    16    1
    18    16    17    1
    19    17    18    1
    20    18    19   ar
    21    18    23   ar
    22    19    20   ar
    23    20    21   ar
    24    21    22   ar
    25    22    23   ar
    26     3    24    1
    27     3    25    1
    28     6    26    1
    29    10    27    1
    30    11    28    1
    31    12    29    1
    32    13    30    1
    33    15    31    1
    34    17    32    1
    35    17    33    1
    36    19    34    1
    37    20    35    1
    38    21    36    1
    39    22    37    1
    40    23    38    1
@<TRIPOS>MOLECULE
../data/bude_mols_rdkit_confs2/molecule_35.pdb
 38 40 0 0 0
SMALL
GASTEIGER

@<TRIPOS>ATOM
      1  O1        -0.4390    0.2360   -0.5960 O.2     1  UNL1       -0.2733
      2  C1        -0.3610   -0.0670    0.6110 C.2     1  UNL1        0.2415
      3  C2        -1.4920   -0.0760    1.5650 C.3     1  UNL1        0.0705
      4  C3        -2.7100   -0.6300    0.9230 C.ar    1  UNL1        0.0781
      5  N1        -2.9840   -1.9430    1.1200 N.ar    1  UNL1       -0.1748
      6  N2        -4.0130   -2.5740    0.5850 N.ar    1  UNL1       -0.2425
      7  C4        -4.8380   -1.8560   -0.2040 C.ar    1  UNL1        0.2725
      8  O2        -5.8330   -2.4370   -0.7310 O.2     1  UNL1       -0.2658
      9  C5        -4.6510   -0.5250   -0.4640 C.ar    1  UNL1        0.0496
     10  C6        -5.5100    0.1990   -1.2550 C.ar    1  UNL1       -0.0487
     11  C7        -5.2710    1.5310   -1.4590 C.ar    1  UNL1       -0.0610
     12  C8        -4.1780    2.1700   -0.8830 C.ar    1  UNL1       -0.0611
     13  C9        -3.3450    1.4270   -0.1060 C.ar    1  UNL1       -0.0521
     14  C10       -3.5370    0.0980    0.1310 C.ar    1  UNL1        0.0108
     15  N3         0.9410   -0.4460    1.1060 N.am    1  UNL1       -0.1939
     16  O3         2.0390   -0.4830    0.3250 O.3     1  UNL1       -0.2752
     17  C11        3.0590    0.2400    1.0130 C.3     1  UNL1        0.0983
     18  C12        4.2830    0.2030    0.1740 C.ar    1  UNL1       -0.0197
     19  C13        5.5260    0.3700    0.7870 C.ar    1  UNL1       -0.0563
     20  C14        6.6850    0.3510    0.0460 C.ar    1  UNL1       -0.0614
     21  C15        6.6570    0.1710   -1.3080 C.ar    1  UNL1       -0.0617
     22  C16        5.4460    0.0020   -1.9420 C.ar    1  UNL1       -0.0614
     23  C17        4.2740    0.0210   -1.1920 C.ar    1  UNL1       -0.0563
     24 H          -1.6884    0.9252    1.8875 H       1  UNL1        0.0424
     25 H          -1.2330   -0.6896    2.4025 H       1  UNL1        0.0424
     26 H          -4.1717   -3.5306    0.7553 H       1  UNL1        0.1921
     27 H          -6.3269   -0.2569   -1.6908 H       1  UNL1        0.0625
     28 H          -5.9165    2.0738   -2.0538 H       1  UNL1        0.0618
     29 H          -4.0048    3.1752   -1.0401 H       1  UNL1        0.0618
     30 H          -2.5296    1.8907    0.3243 H       1  UNL1        0.0624
     31 H           1.0310   -0.6882    2.0560 H       1  UNL1        0.1825
     32 H           3.2531   -0.2167    1.9610 H       1  UNL1        0.0634
     33 H           2.7519    1.2508    1.1832 H       1  UNL1        0.0634
     34 H           5.5761    0.5094    1.8083 H       1  UNL1        0.0621
     35 H           7.5924    0.4750    0.5218 H       1  UNL1        0.0618
     36 H           7.5348    0.1617   -1.8506 H       1  UNL1        0.0618
     37 H           5.4081   -0.1374   -2.9638 H       1  UNL1        0.0618
     38 H           3.3701   -0.1051   -1.6737 H       1  UNL1        0.0621
@<TRIPOS>BOND
     1     1     2    2
     2     2     3    1
     3     2    15   am
     4     3     4    1
     5     4     5   ar
     6     4    14   ar
     7     5     6   ar
     8     6     7   ar
     9     7     8    2
    10     7     9   ar
    11     9    10   ar
    12     9    14   ar
    13    10    11   ar
    14    11    12   ar
    15    12    13   ar
    16    13    14   ar
    17    15    16    1
    18    16    17    1
    19    17    18    1
    20    18    19   ar
    21    18    23   ar
    22    19    20   ar
    23    20    21   ar
    24    21    22   ar
    25    22    23   ar
    26     3    24    1
    27     3    25    1
    28     6    26    1
    29    10    27    1
    30    11    28    1
    31    12    29    1
    32    13    30    1
    33    15    31    1
    34    17    32    1
    35    17    33    1
    36    19    34    1
    37    20    35    1
    38    21    36    1
    39    22    37    1
    40    23    38    1
@<TRIPOS>MOLECULE
../data/bude_mols_rdkit_confs2/molecule_35.pdb
 38 40 0 0 0
SMALL
GASTEIGER

@<TRIPOS>ATOM
      1  O1         0.0720   -0.9250   -1.6620 O.2     1  UNL1       -0.2733
      2  C1         0.1830   -1.1140   -0.4230 C.2     1  UNL1        0.2415
      3  C2         1.5310   -1.4950    0.1480 C.3     1  UNL1        0.0705
      4  C3         2.3930   -0.3290    0.0570 C.ar    1  UNL1        0.0781
      5  N1         1.7960    0.8700   -0.1410 N.ar    1  UNL1       -0.1748
      6  N2         2.4960    2.0030   -0.1960 N.ar    1  UNL1       -0.2425
      7  C4         3.8300    2.0130   -0.0580 C.ar    1  UNL1        0.2725
      8  O2         4.4830    3.0880   -0.1110 O.2     1  UNL1       -0.2658
      9  C5         4.5030    0.8370    0.1440 C.ar    1  UNL1        0.0496
     10  C6         5.8590    0.7750    0.2930 C.ar    1  UNL1       -0.0487
     11  C7         6.4690   -0.4330    0.4890 C.ar    1  UNL1       -0.0610
     12  C8         5.7350   -1.6230    0.5420 C.ar    1  UNL1       -0.0611
     13  C9         4.3720   -1.5690    0.3940 C.ar    1  UNL1       -0.0521
     14  C10        3.7600   -0.3430    0.1980 C.ar    1  UNL1        0.0108
     15  N3        -0.9760   -0.9530    0.3710 N.am    1  UNL1       -0.1939
     16  O3        -2.1780   -0.5960   -0.1360 O.3     1  UNL1       -0.2752
     17  C11       -3.1000   -0.3840    0.9050 C.3     1  UNL1        0.0983
     18  C12       -4.3970    0.0900    0.3650 C.ar    1  UNL1       -0.0197
     19  C13       -4.3920    1.3280   -0.2800 C.ar    1  UNL1       -0.0563
     20  C14       -5.5900    1.8040   -0.7840 C.ar    1  UNL1       -0.0614
     21  C15       -6.7550    1.0610   -0.6460 C.ar    1  UNL1       -0.0617
     22  C16       -6.7190   -0.1560   -0.0010 C.ar    1  UNL1       -0.0614
     23  C17       -5.5300   -0.6420    0.5060 C.ar    1  UNL1       -0.0563
     24 H           1.9501   -2.3031   -0.4143 H       1  UNL1        0.0424
     25 H           1.4321   -1.8103    1.1657 H       1  UNL1        0.0424
     26 H           2.0220    2.8535   -0.3415 H       1  UNL1        0.1921
     27 H           6.4227    1.6387    0.2577 H       1  UNL1        0.0625
     28 H           7.4944   -0.4678    0.6004 H       1  UNL1        0.0618
     29 H           6.2110   -2.5266    0.6900 H       1  UNL1        0.0618
     30 H           3.8091   -2.4333    0.4284 H       1  UNL1        0.0624
     31 H          -0.9044   -1.1084    1.3405 H       1  UNL1        0.1825
     32 H          -2.7089    0.3513    1.5767 H       1  UNL1        0.0634
     33 H          -3.2579   -1.3088    1.4196 H       1  UNL1        0.0634
     34 H          -3.5207    1.8723   -0.3782 H       1  UNL1        0.0621
     35 H          -5.6176    2.7165   -1.2652 H       1  UNL1        0.0618
     36 H          -7.6453    1.4194   -1.0255 H       1  UNL1        0.0618
     37 H          -7.5851   -0.7072    0.1038 H       1  UNL1        0.0618
     38 H          -5.5038   -1.5542    0.9879 H       1  UNL1        0.0621
@<TRIPOS>BOND
     1     1     2    2
     2     2     3    1
     3     2    15   am
     4     3     4    1
     5     4     5   ar
     6     4    14   ar
     7     5     6   ar
     8     6     7   ar
     9     7     8    2
    10     7     9   ar
    11     9    10   ar
    12     9    14   ar
    13    10    11   ar
    14    11    12   ar
    15    12    13   ar
    16    13    14   ar
    17    15    16    1
    18    16    17    1
    19    17    18    1
    20    18    19   ar
    21    18    23   ar
    22    19    20   ar
    23    20    21   ar
    24    21    22   ar
    25    22    23   ar
    26     3    24    1
    27     3    25    1
    28     6    26    1
    29    10    27    1
    30    11    28    1
    31    12    29    1
    32    13    30    1
    33    15    31    1
    34    17    32    1
    35    17    33    1
    36    19    34    1
    37    20    35    1
    38    21    36    1
    39    22    37    1
    40    23    38    1
@<TRIPOS>MOLECULE
../data/bude_mols_rdkit_confs2/molecule_35.pdb
 38 40 0 0 0
SMALL
GASTEIGER

@<TRIPOS>ATOM
      1  O1        -0.4750   -0.4690   -0.0740 O.2     1  UNL1       -0.2733
      2  C1        -0.4120    0.5080   -0.8920 C.2     1  UNL1        0.2415
      3  C2        -1.5080    0.8170   -1.8600 C.3     1  UNL1        0.0705
      4  C3        -2.5630   -0.1970   -1.6320 C.ar    1  UNL1        0.0781
      5  N1        -2.7600   -1.2280   -2.4710 N.ar    1  UNL1       -0.1748
      6  N2        -3.6920   -2.1450   -2.2950 N.ar    1  UNL1       -0.2425
      7  C4        -4.4850   -2.0490   -1.2290 C.ar    1  UNL1        0.2725
      8  O2        -5.3730   -2.9200   -1.0580 O.2     1  UNL1       -0.2658
      9  C5        -4.3690   -1.0340   -0.3080 C.ar    1  UNL1        0.0496
     10  C6        -5.1810   -0.9260    0.7930 C.ar    1  UNL1       -0.0487
     11  C7        -4.9740    0.1450    1.6630 C.ar    1  UNL1       -0.0610
     12  C8        -3.9780    1.0750    1.4240 C.ar    1  UNL1       -0.0611
     13  C9        -3.1710    0.9670    0.3280 C.ar    1  UNL1       -0.0521
     14  C10       -3.3660   -0.0870   -0.5380 C.ar    1  UNL1        0.0108
     15  N3         0.7730    1.3020   -0.8370 N.am    1  UNL1       -0.1939
     16  O3         1.7610    0.9910    0.0640 O.3     1  UNL1       -0.2752
     17  C11        2.9250    0.7680   -0.6660 C.3     1  UNL1        0.0983
     18  C12        4.0730    0.4190    0.1990 C.ar    1  UNL1       -0.0197
     19  C13        4.6070    1.2490    1.1350 C.ar    1  UNL1       -0.0563
     20  C14        5.6770    0.8150    1.8840 C.ar    1  UNL1       -0.0614
     21  C15        6.2170   -0.4490    1.6990 C.ar    1  UNL1       -0.0617
     22  C16        5.6930   -1.3080    0.7550 C.ar    1  UNL1       -0.0614
     23  C17        4.6250   -0.8400    0.0260 C.ar    1  UNL1       -0.0563
     24 H          -1.1441    0.7535   -2.8642 H       1  UNL1        0.0424
     25 H          -1.8845    1.8084   -1.7173 H       1  UNL1        0.0424
     26 H          -3.7990   -2.8836   -2.9371 H       1  UNL1        0.1921
     27 H          -5.9248   -1.6184    0.9727 H       1  UNL1        0.0625
     28 H          -5.5730    0.2449    2.4974 H       1  UNL1        0.0618
     29 H          -3.8435    1.8590    2.0814 H       1  UNL1        0.0618
     30 H          -2.4287    1.6619    0.1514 H       1  UNL1        0.0624
     31 H           0.8814    2.0701   -1.4432 H       1  UNL1        0.1825
     32 H           3.1637    1.6564   -1.2125 H       1  UNL1        0.0634
     33 H           2.7465   -0.0586   -1.3216 H       1  UNL1        0.0634
     34 H           4.2148    2.1922    1.2817 H       1  UNL1        0.0621
     35 H           6.0847    1.4412    2.5958 H       1  UNL1        0.0618
     36 H           7.0195   -0.7503    2.2737 H       1  UNL1        0.0618
     37 H           6.0820   -2.2519    0.6040 H       1  UNL1        0.0618
     38 H           4.2124   -1.4600   -0.6885 H       1  UNL1        0.0621
@<TRIPOS>BOND
     1     1     2    2
     2     2     3    1
     3     2    15   am
     4     3     4    1
     5     4     5   ar
     6     4    14   ar
     7     5     6   ar
     8     6     7   ar
     9     7     8    2
    10     7     9   ar
    11     9    10   ar
    12     9    14   ar
    13    10    11   ar
    14    11    12   ar
    15    12    13   ar
    16    13    14   ar
    17    15    16    1
    18    16    17    1
    19    17    18    1
    20    18    19   ar
    21    18    23   ar
    22    19    20   ar
    23    20    21   ar
    24    21    22   ar
    25    22    23   ar
    26     3    24    1
    27     3    25    1
    28     6    26    1
    29    10    27    1
    30    11    28    1
    31    12    29    1
    32    13    30    1
    33    15    31    1
    34    17    32    1
    35    17    33    1
    36    19    34    1
    37    20    35    1
    38    21    36    1
    39    22    37    1
    40    23    38    1
@<TRIPOS>MOLECULE
../data/bude_mols_rdkit_confs2/molecule_35.pdb
 38 40 0 0 0
SMALL
GASTEIGER

@<TRIPOS>ATOM
      1  O1        -0.7250    1.6300   -0.7420 O.2     1  UNL1       -0.2733
      2  C1        -0.0740    0.6370   -0.3540 C.2     1  UNL1        0.2415
      3  C2        -0.6450   -0.6210    0.1000 C.3     1  UNL1        0.0705
      4  C3        -1.9640   -0.9650   -0.4370 C.ar    1  UNL1        0.0781
      5  N1        -2.0870   -1.9100   -1.4190 N.ar    1  UNL1       -0.1748
      6  N2        -3.2450   -2.2710   -1.9430 N.ar    1  UNL1       -0.2425
      7  C4        -4.4030   -1.7010   -1.5130 C.ar    1  UNL1        0.2725
      8  O2        -5.4880   -2.0580   -2.0220 O.2     1  UNL1       -0.2658
      9  C5        -4.3520   -0.7520   -0.5380 C.ar    1  UNL1        0.0496
     10  C6        -5.4960   -0.1630   -0.0860 C.ar    1  UNL1       -0.0487
     11  C7        -5.4990    0.8010    0.9050 C.ar    1  UNL1       -0.0610
     12  C8        -4.2760    1.1710    1.4490 C.ar    1  UNL1       -0.0611
     13  C9        -3.1180    0.5830    0.9980 C.ar    1  UNL1       -0.0521
     14  C10       -3.1110   -0.3760    0.0130 C.ar    1  UNL1        0.0108
     15  N3         1.3820    0.7610   -0.3750 N.am    1  UNL1       -0.1939
     16  O3         1.9840    1.8880   -0.7730 O.3     1  UNL1       -0.2752
     17  C11        3.0080    2.2240    0.1650 C.3     1  UNL1        0.0983
     18  C12        3.9130    1.0390    0.1530 C.ar    1  UNL1       -0.0197
     19  C13        4.6540    0.7400   -0.9630 C.ar    1  UNL1       -0.0563
     20  C14        5.4550   -0.4080   -0.9590 C.ar    1  UNL1       -0.0614
     21  C15        5.5140   -1.2230    0.1190 C.ar    1  UNL1       -0.0617
     22  C16        4.7490   -0.8790    1.2330 C.ar    1  UNL1       -0.0614
     23  C17        3.9560    0.2310    1.2650 C.ar    1  UNL1       -0.0563
     24 H          -0.7283   -0.5757    1.1658 H       1  UNL1        0.0424
     25 H           0.0169   -1.3814   -0.2587 H       1  UNL1        0.0424
     26 H          -3.2700   -2.9567   -2.6490 H       1  UNL1        0.1921
     27 H          -6.3967   -0.4487   -0.5009 H       1  UNL1        0.0625
     28 H          -6.3795    1.2307    1.2292 H       1  UNL1        0.0618
     29 H          -4.2364    1.8869    2.1913 H       1  UNL1        0.0618
     30 H          -2.2195    0.8726    1.4149 H       1  UNL1        0.0624
     31 H           1.9333   -0.0030   -0.0894 H       1  UNL1        0.1825
     32 H           2.5949    2.3770    1.1401 H       1  UNL1        0.0634
     33 H           3.5154    3.1316   -0.0875 H       1  UNL1        0.0634
     34 H           4.6211    1.3526   -1.7929 H       1  UNL1        0.0621
     35 H           6.0125   -0.6375   -1.7966 H       1  UNL1        0.0618
     36 H           6.1043   -2.0695    0.1171 H       1  UNL1        0.0618
     37 H           4.7840   -1.4876    2.0657 H       1  UNL1        0.0618
     38 H           3.4011    0.4590    2.1047 H       1  UNL1        0.0621
@<TRIPOS>BOND
     1     1     2    2
     2     2     3    1
     3     2    15   am
     4     3     4    1
     5     4     5   ar
     6     4    14   ar
     7     5     6   ar
     8     6     7   ar
     9     7     8    2
    10     7     9   ar
    11     9    10   ar
    12     9    14   ar
    13    10    11   ar
    14    11    12   ar
    15    12    13   ar
    16    13    14   ar
    17    15    16    1
    18    16    17    1
    19    17    18    1
    20    18    19   ar
    21    18    23   ar
    22    19    20   ar
    23    20    21   ar
    24    21    22   ar
    25    22    23   ar
    26     3    24    1
    27     3    25    1
    28     6    26    1
    29    10    27    1
    30    11    28    1
    31    12    29    1
    32    13    30    1
    33    15    31    1
    34    17    32    1
    35    17    33    1
    36    19    34    1
    37    20    35    1
    38    21    36    1
    39    22    37    1
    40    23    38    1
@<TRIPOS>MOLECULE
../data/bude_mols_rdkit_confs2/molecule_35.pdb
 38 40 0 0 0
SMALL
GASTEIGER

@<TRIPOS>ATOM
      1  O1        -0.0470    1.7140    0.1730 O.2     1  UNL1       -0.2733
      2  C1         0.1080    0.4850    0.2990 C.2     1  UNL1        0.2415
      3  C2         1.3910   -0.2450    0.2230 C.3     1  UNL1        0.0705
      4  C3         2.5740    0.5920    0.0300 C.ar    1  UNL1        0.0781
      5  N1         2.6000    1.9050   -0.2350 N.ar    1  UNL1       -0.1748
      6  N2         3.7520    2.5670   -0.3800 N.ar    1  UNL1       -0.2425
      7  C4         4.9630    1.9960   -0.2780 C.ar    1  UNL1        0.2725
      8  O2         6.0280    2.6580   -0.4220 O.2     1  UNL1       -0.2658
      9  C5         4.9910    0.6360   -0.0040 C.ar    1  UNL1        0.0496
     10  C6         6.2110    0.0230    0.1090 C.ar    1  UNL1       -0.0487
     11  C7         6.2700   -1.3110    0.3780 C.ar    1  UNL1       -0.0610
     12  C8         5.1140   -2.0380    0.5350 C.ar    1  UNL1       -0.0611
     13  C9         3.9020   -1.3960    0.4170 C.ar    1  UNL1       -0.0521
     14  C10        3.8040   -0.0410    0.1440 C.ar    1  UNL1        0.0108
     15  N3        -1.0480   -0.3000    0.5460 N.am    1  UNL1       -0.1939
     16  O3        -2.3050    0.1760    0.6570 O.3     1  UNL1       -0.2752
     17  C11       -3.1130   -0.6090   -0.1110 C.3     1  UNL1        0.0983
     18  C12       -4.5450   -0.2500   -0.0810 C.ar    1  UNL1       -0.0197
     19  C13       -5.0290    0.7530    0.7210 C.ar    1  UNL1       -0.0563
     20  C14       -6.3850    1.0830    0.7560 C.ar    1  UNL1       -0.0614
     21  C15       -7.2680    0.3860   -0.0360 C.ar    1  UNL1       -0.0617
     22  C16       -6.8050   -0.6230   -0.8480 C.ar    1  UNL1       -0.0614
     23  C17       -5.4380   -0.9400   -0.8680 C.ar    1  UNL1       -0.0563
     24 H           1.3335   -0.9306   -0.5965 H       1  UNL1        0.0424
     25 H           1.5172   -0.7224    1.1723 H       1  UNL1        0.0424
     26 H           3.7101    3.5314   -0.5732 H       1  UNL1        0.1921
     27 H           7.0793    0.5682   -0.0089 H       1  UNL1        0.0625
     28 H           7.1863   -1.7778    0.4643 H       1  UNL1        0.0618
     29 H           5.1541   -3.0490    0.7381 H       1  UNL1        0.0618
     30 H           3.0353   -1.9435    0.5361 H       1  UNL1        0.0624
     31 H          -0.9222   -1.2715    0.6444 H       1  UNL1        0.1825
     32 H          -3.0168   -1.6184    0.2307 H       1  UNL1        0.0634
     33 H          -2.7913   -0.4696   -1.1219 H       1  UNL1        0.0634
     34 H          -4.3705    1.2793    1.3163 H       1  UNL1        0.0621
     35 H          -6.7215    1.8417    1.3694 H       1  UNL1        0.0618
     36 H          -8.2732    0.6192   -0.0209 H       1  UNL1        0.0618
     37 H          -7.4641   -1.1480   -1.4437 H       1  UNL1        0.0618
     38 H          -5.0989   -1.6989   -1.4797 H       1  UNL1        0.0621
@<TRIPOS>BOND
     1     1     2    2
     2     2     3    1
     3     2    15   am
     4     3     4    1
     5     4     5   ar
     6     4    14   ar
     7     5     6   ar
     8     6     7   ar
     9     7     8    2
    10     7     9   ar
    11     9    10   ar
    12     9    14   ar
    13    10    11   ar
    14    11    12   ar
    15    12    13   ar
    16    13    14   ar
    17    15    16    1
    18    16    17    1
    19    17    18    1
    20    18    19   ar
    21    18    23   ar
    22    19    20   ar
    23    20    21   ar
    24    21    22   ar
    25    22    23   ar
    26     3    24    1
    27     3    25    1
    28     6    26    1
    29    10    27    1
    30    11    28    1
    31    12    29    1
    32    13    30    1
    33    15    31    1
    34    17    32    1
    35    17    33    1
    36    19    34    1
    37    20    35    1
    38    21    36    1
    39    22    37    1
    40    23    38    1
@<TRIPOS>MOLECULE
../data/bude_mols_rdkit_confs2/molecule_35.pdb
 38 40 0 0 0
SMALL
GASTEIGER

@<TRIPOS>ATOM
      1  O1        -0.5320    0.3720   -0.8400 O.2     1  UNL1       -0.2733
      2  C1        -0.4610   -0.8550   -0.5790 C.2     1  UNL1        0.2415
      3  C2        -1.6860   -1.7050   -0.7270 C.3     1  UNL1        0.0705
      4  C3        -2.8180   -0.8740   -1.1770 C.ar    1  UNL1        0.0781
      5  N1        -3.2240   -0.9680   -2.4660 N.ar    1  UNL1       -0.1748
      6  N2        -4.2360   -0.2370   -2.8900 N.ar    1  UNL1       -0.2425
      7  C4        -4.8840    0.6130   -2.0580 C.ar    1  UNL1        0.2725
      8  O2        -5.8560    1.3160   -2.4570 O.2     1  UNL1       -0.2658
      9  C5        -4.4890    0.7310   -0.7270 C.ar    1  UNL1        0.0496
     10  C6        -5.1120    1.5790    0.1450 C.ar    1  UNL1       -0.0487
     11  C7        -4.6680    1.6530    1.4520 C.ar    1  UNL1       -0.0610
     12  C8        -3.6000    0.8740    1.8740 C.ar    1  UNL1       -0.0611
     13  C9        -2.9490    0.0050    1.0120 C.ar    1  UNL1       -0.0521
     14  C10       -3.4420   -0.0280   -0.2980 C.ar    1  UNL1        0.0108
     15  N3         0.7550   -1.4450   -0.1480 N.am    1  UNL1       -0.1939
     16  O3         1.8120   -0.5960   -0.0430 O.3     1  UNL1       -0.2752
     17  C11        3.0120   -1.2870    0.0440 C.3     1  UNL1        0.0983
     18  C12        4.1620   -0.3410    0.1500 C.ar    1  UNL1       -0.0197
     19  C13        3.9660    0.9650    0.4750 C.ar    1  UNL1       -0.0563
     20  C14        5.0560    1.8240    0.5600 C.ar    1  UNL1       -0.0614
     21  C15        6.3600    1.4040    0.3250 C.ar    1  UNL1       -0.0617
     22  C16        6.5250    0.0760   -0.0030 C.ar    1  UNL1       -0.0614
     23  C17        5.4520   -0.8060   -0.0950 C.ar    1  UNL1       -0.0563
     24 H          -1.9252   -2.1509    0.2158 H       1  UNL1        0.0424
     25 H          -1.4998   -2.4709   -1.4507 H       1  UNL1        0.0424
     26 H          -4.5258   -0.3103   -3.8280 H       1  UNL1        0.1921
     27 H          -5.9061    2.1584   -0.1692 H       1  UNL1        0.0625
     28 H          -5.1330    2.2906    2.1170 H       1  UNL1        0.0618
     29 H          -3.2825    0.9432    2.8535 H       1  UNL1        0.0618
     30 H          -2.1540   -0.5787    1.3157 H       1  UNL1        0.0624
     31 H           0.8286   -2.4042    0.0610 H       1  UNL1        0.1825
     32 H           3.1336   -1.8904   -0.8313 H       1  UNL1        0.0634
     33 H           2.9913   -1.9012    0.9199 H       1  UNL1        0.0634
     34 H           3.0131    1.3166    0.6576 H       1  UNL1        0.0621
     35 H           4.8904    2.8122    0.8073 H       1  UNL1        0.0618
     36 H           7.1608    2.0515    0.3925 H       1  UNL1        0.0618
     37 H           7.4771   -0.2771   -0.1869 H       1  UNL1        0.0618
     38 H           5.6108   -1.7952   -0.3424 H       1  UNL1        0.0621
@<TRIPOS>BOND
     1     1     2    2
     2     2     3    1
     3     2    15   am
     4     3     4    1
     5     4     5   ar
     6     4    14   ar
     7     5     6   ar
     8     6     7   ar
     9     7     8    2
    10     7     9   ar
    11     9    10   ar
    12     9    14   ar
    13    10    11   ar
    14    11    12   ar
    15    12    13   ar
    16    13    14   ar
    17    15    16    1
    18    16    17    1
    19    17    18    1
    20    18    19   ar
    21    18    23   ar
    22    19    20   ar
    23    20    21   ar
    24    21    22   ar
    25    22    23   ar
    26     3    24    1
    27     3    25    1
    28     6    26    1
    29    10    27    1
    30    11    28    1
    31    12    29    1
    32    13    30    1
    33    15    31    1
    34    17    32    1
    35    17    33    1
    36    19    34    1
    37    20    35    1
    38    21    36    1
    39    22    37    1
    40    23    38    1
@<TRIPOS>MOLECULE
../data/bude_mols_rdkit_confs2/molecule_35.pdb
 38 40 0 0 0
SMALL
GASTEIGER

@<TRIPOS>ATOM
      1  O1        -0.5030    0.1230   -0.6010 O.2     1  UNL1       -0.2733
      2  C1        -0.4410   -0.8340    0.1870 C.2     1  UNL1        0.2415
      3  C2        -1.7060   -1.4400    0.7390 C.3     1  UNL1        0.0705
      4  C3        -2.7090   -0.3890    0.9320 C.ar    1  UNL1        0.0781
      5  N1        -2.7520    0.1080    2.2270 N.ar    1  UNL1       -0.1748
      6  N2        -3.5950    1.0700    2.5100 N.ar    1  UNL1       -0.2425
      7  C4        -4.4370    1.6010    1.5710 C.ar    1  UNL1        0.2725
      8  O2        -5.2270    2.5080    1.8630 O.2     1  UNL1       -0.2658
      9  C5        -4.4020    1.1090    0.2800 C.ar    1  UNL1        0.0496
     10  C6        -5.2320    1.5720   -0.7020 C.ar    1  UNL1       -0.0487
     11  C7        -5.1980    1.0520   -1.9750 C.ar    1  UNL1       -0.0610
     12  C8        -4.2930    0.0260   -2.2620 C.ar    1  UNL1       -0.0611
     13  C9        -3.4360   -0.4720   -1.2980 C.ar    1  UNL1       -0.0521
     14  C10       -3.5070    0.0880   -0.0280 C.ar    1  UNL1        0.0108
     15  N3         0.8190   -1.4120    0.6240 N.am    1  UNL1       -0.1939
     16  O3         1.9410   -0.8840    0.1530 O.3     1  UNL1       -0.2752
     17  C11        3.0890   -1.4210    0.7450 C.3     1  UNL1        0.0983
     18  C12        4.2630   -0.7340    0.1340 C.ar    1  UNL1       -0.0197
     19  C13        5.5480   -1.1480    0.3260 C.ar    1  UNL1       -0.0563
     20  C14        6.6340   -0.5020   -0.2480 C.ar    1  UNL1       -0.0614
     21  C15        6.4120    0.5940   -1.0390 C.ar    1  UNL1       -0.0617
     22  C16        5.1000    1.0160   -1.2320 C.ar    1  UNL1       -0.0614
     23  C17        4.0310    0.3690   -0.6610 C.ar    1  UNL1       -0.0563
     24 H          -1.4964   -1.9093    1.6775 H       1  UNL1        0.0424
     25 H          -2.0815   -2.1685    0.0511 H       1  UNL1        0.0424
     26 H          -3.6237    1.4226    3.4287 H       1  UNL1        0.1921
     27 H          -5.8991    2.3285   -0.4837 H       1  UNL1        0.0625
     28 H          -5.8303    1.4134   -2.7062 H       1  UNL1        0.0618
     29 H          -4.2639   -0.3687   -3.2151 H       1  UNL1        0.0618
     30 H          -2.7696   -1.2300   -1.5132 H       1  UNL1        0.0624
     31 H           0.8391   -2.1716    1.2500 H       1  UNL1        0.1825
     32 H           3.1408   -2.4730    0.5564 H       1  UNL1        0.0634
     33 H           3.0732   -1.2755    1.8049 H       1  UNL1        0.0634
     34 H           5.7196   -1.9735    0.9211 H       1  UNL1        0.0621
     35 H           7.5940   -0.8422   -0.0814 H       1  UNL1        0.0618
     36 H           7.1987    1.0947   -1.4811 H       1  UNL1        0.0618
     37 H           4.9242    1.8428   -1.8240 H       1  UNL1        0.0618
     38 H           3.0685    0.7034   -0.8245 H       1  UNL1        0.0621
@<TRIPOS>BOND
     1     1     2    2
     2     2     3    1
     3     2    15   am
     4     3     4    1
     5     4     5   ar
     6     4    14   ar
     7     5     6   ar
     8     6     7   ar
     9     7     8    2
    10     7     9   ar
    11     9    10   ar
    12     9    14   ar
    13    10    11   ar
    14    11    12   ar
    15    12    13   ar
    16    13    14   ar
    17    15    16    1
    18    16    17    1
    19    17    18    1
    20    18    19   ar
    21    18    23   ar
    22    19    20   ar
    23    20    21   ar
    24    21    22   ar
    25    22    23   ar
    26     3    24    1
    27     3    25    1
    28     6    26    1
    29    10    27    1
    30    11    28    1
    31    12    29    1
    32    13    30    1
    33    15    31    1
    34    17    32    1
    35    17    33    1
    36    19    34    1
    37    20    35    1
    38    21    36    1
    39    22    37    1
    40    23    38    1
@<TRIPOS>MOLECULE
../data/bude_mols_rdkit_confs2/molecule_35.pdb
 38 40 0 0 0
SMALL
GASTEIGER

@<TRIPOS>ATOM
      1  O1        -0.1650   -1.8520   -0.8830 O.2     1  UNL1       -0.2733
      2  C1         0.1710   -1.8370    0.3290 C.2     1  UNL1        0.2415
      3  C2        -0.8810   -1.5170    1.3290 C.3     1  UNL1        0.0705
      4  C3        -2.1860   -1.2500    0.6770 C.ar    1  UNL1        0.0781
      5  N1        -3.1640   -2.2010    0.6470 N.ar    1  UNL1       -0.1748
      6  N2        -4.3340   -2.0070    0.0660 N.ar    1  UNL1       -0.2425
      7  C4        -4.6570   -0.8550   -0.5450 C.ar    1  UNL1        0.2725
      8  O2        -5.8020   -0.7050   -1.0980 O.2     1  UNL1       -0.2658
      9  C5        -3.7250    0.1600   -0.5600 C.ar    1  UNL1        0.0496
     10  C6        -4.0550    1.3410   -1.1800 C.ar    1  UNL1       -0.0487
     11  C7        -3.1040    2.3380   -1.1740 C.ar    1  UNL1       -0.0610
     12  C8        -1.8700    2.1450   -0.5650 C.ar    1  UNL1       -0.0611
     13  C9        -1.5500    0.9620    0.0510 C.ar    1  UNL1       -0.0521
     14  C10       -2.4910   -0.0560    0.0580 C.ar    1  UNL1        0.0108
     15  N3         1.5070   -2.1230    0.6690 N.am    1  UNL1       -0.1939
     16  O3         2.4720   -2.4190   -0.2120 O.3     1  UNL1       -0.2752
     17  C11        2.7430   -1.4350   -1.1350 C.3     1  UNL1        0.0983
     18  C12        3.1970   -0.1580   -0.5370 C.ar    1  UNL1       -0.0197
     19  C13        2.7290    1.0270   -1.0410 C.ar    1  UNL1       -0.0563
     20  C14        3.1480    2.2100   -0.4960 C.ar    1  UNL1       -0.0614
     21  C15        4.0260    2.2480    0.5430 C.ar    1  UNL1       -0.0617
     22  C16        4.5010    1.0670    1.0560 C.ar    1  UNL1       -0.0614
     23  C17        4.0830   -0.1230    0.5120 C.ar    1  UNL1       -0.0563
     24 H          -0.5840   -0.6498    1.8810 H       1  UNL1        0.0424
     25 H          -0.9956   -2.3601    1.9778 H       1  UNL1        0.0424
     26 H          -4.9959   -2.7356    0.0813 H       1  UNL1        0.1921
     27 H          -4.9740    1.4752   -1.6300 H       1  UNL1        0.0625
     28 H          -3.3112    3.2411   -1.6284 H       1  UNL1        0.0618
     29 H          -1.1776    2.9102   -0.5765 H       1  UNL1        0.0618
     30 H          -0.6294    0.8326    0.4992 H       1  UNL1        0.0624
     31 H           1.7496   -2.1041    1.6230 H       1  UNL1        0.1825
     32 H           1.8522   -1.2458   -1.6968 H       1  UNL1        0.0634
     33 H           3.5454   -1.7944   -1.7448 H       1  UNL1        0.0634
     34 H           2.0627    1.0273   -1.8291 H       1  UNL1        0.0621
     35 H           2.7888    3.0967   -0.8830 H       1  UNL1        0.0618
     36 H           4.3300    3.1511    0.9392 H       1  UNL1        0.0618
     37 H           5.1670    1.0730    1.8443 H       1  UNL1        0.0618
     38 H           4.4422   -1.0094    0.8996 H       1  UNL1        0.0621
@<TRIPOS>BOND
     1     1     2    2
     2     2     3    1
     3     2    15   am
     4     3     4    1
     5     4     5   ar
     6     4    14   ar
     7     5     6   ar
     8     6     7   ar
     9     7     8    2
    10     7     9   ar
    11     9    10   ar
    12     9    14   ar
    13    10    11   ar
    14    11    12   ar
    15    12    13   ar
    16    13    14   ar
    17    15    16    1
    18    16    17    1
    19    17    18    1
    20    18    19   ar
    21    18    23   ar
    22    19    20   ar
    23    20    21   ar
    24    21    22   ar
    25    22    23   ar
    26     3    24    1
    27     3    25    1
    28     6    26    1
    29    10    27    1
    30    11    28    1
    31    12    29    1
    32    13    30    1
    33    15    31    1
    34    17    32    1
    35    17    33    1
    36    19    34    1
    37    20    35    1
    38    21    36    1
    39    22    37    1
    40    23    38    1
@<TRIPOS>MOLECULE
../data/bude_mols_rdkit_confs2/molecule_35.pdb
 38 40 0 0 0
SMALL
GASTEIGER

@<TRIPOS>ATOM
      1  O1        -0.5880    0.4120    1.7480 O.2     1  UNL1       -0.2733
      2  C1        -0.5530   -0.7060    1.2120 C.2     1  UNL1        0.2415
      3  C2        -1.6950   -1.7030    1.2420 C.3     1  UNL1        0.0705
      4  C3        -2.5420   -1.2160    0.1150 C.ar    1  UNL1        0.0781
      5  N1        -2.3320   -1.7810   -1.0900 N.ar    1  UNL1       -0.1748
      6  N2        -2.9250   -1.3400   -2.1840 N.ar    1  UNL1       -0.2425
      7  C4        -3.7730   -0.2910   -2.0990 C.ar    1  UNL1        0.2725
      8  O2        -4.3250    0.1150   -3.1420 O.2     1  UNL1       -0.2658
      9  C5        -4.0470    0.3400   -0.9060 C.ar    1  UNL1        0.0496
     10  C6        -4.8920    1.4110   -0.8050 C.ar    1  UNL1       -0.0487
     11  C7        -5.1060    2.0010    0.4240 C.ar    1  UNL1       -0.0610
     12  C8        -4.4790    1.5250    1.5570 C.ar    1  UNL1       -0.0611
     13  C9        -3.6370    0.4500    1.4190 C.ar    1  UNL1       -0.0521
     14  C10       -3.3930   -0.1640    0.2240 C.ar    1  UNL1        0.0108
     15  N3         0.6220   -1.0770    0.5080 N.am    1  UNL1       -0.1939
     16  O3         1.7170   -0.3170    0.3210 O.3     1  UNL1       -0.2752
     17  C11        2.8670   -1.0930    0.4010 C.3     1  UNL1        0.0983
     18  C12        4.0380   -0.2020    0.0740 C.ar    1  UNL1       -0.0197
     19  C13        3.8300    1.0240   -0.5220 C.ar    1  UNL1       -0.0563
     20  C14        4.8590    1.8760   -0.8840 C.ar    1  UNL1       -0.0614
     21  C15        6.1660    1.4800   -0.6350 C.ar    1  UNL1       -0.0617
     22  C16        6.3600    0.2630   -0.0440 C.ar    1  UNL1       -0.0614
     23  C17        5.3310   -0.5790    0.3130 C.ar    1  UNL1       -0.0563
     24 H          -2.2225   -1.6658    2.1722 H       1  UNL1        0.0424
     25 H          -1.3869   -2.7233    1.1479 H       1  UNL1        0.0424
     26 H          -2.7514   -1.7705   -3.0522 H       1  UNL1        0.1921
     27 H          -5.3677    1.7764   -1.6448 H       1  UNL1        0.0625
     28 H          -5.7436    2.8092    0.4966 H       1  UNL1        0.0618
     29 H          -4.6379    1.9628    2.4779 H       1  UNL1        0.0618
     30 H          -3.1641    0.0872    2.2615 H       1  UNL1        0.0624
     31 H           0.6378   -1.9805    0.1174 H       1  UNL1        0.1825
     32 H           2.8137   -1.8987   -0.3010 H       1  UNL1        0.0634
     33 H           2.9728   -1.5104    1.3805 H       1  UNL1        0.0634
     34 H           2.8592    1.3209   -0.7073 H       1  UNL1        0.0621
     35 H           4.6590    2.7854   -1.3291 H       1  UNL1        0.0618
     36 H           6.9639    2.0839   -0.8875 H       1  UNL1        0.0618
     37 H           7.3282   -0.0405    0.1444 H       1  UNL1        0.0618
     38 H           5.5337   -1.4880    0.7577 H       1  UNL1        0.0621
@<TRIPOS>BOND
     1     1     2    2
     2     2     3    1
     3     2    15   am
     4     3     4    1
     5     4     5   ar
     6     4    14   ar
     7     5     6   ar
     8     6     7   ar
     9     7     8    2
    10     7     9   ar
    11     9    10   ar
    12     9    14   ar
    13    10    11   ar
    14    11    12   ar
    15    12    13   ar
    16    13    14   ar
    17    15    16    1
    18    16    17    1
    19    17    18    1
    20    18    19   ar
    21    18    23   ar
    22    19    20   ar
    23    20    21   ar
    24    21    22   ar
    25    22    23   ar
    26     3    24    1
    27     3    25    1
    28     6    26    1
    29    10    27    1
    30    11    28    1
    31    12    29    1
    32    13    30    1
    33    15    31    1
    34    17    32    1
    35    17    33    1
    36    19    34    1
    37    20    35    1
    38    21    36    1
    39    22    37    1
    40    23    38    1
