@<TRIPOS>MOLECULE
../data/bude_mols_rdkit_confs2/molecule_66.pdb
 38 40 0 0 0
SMALL
GASTEIGER

@<TRIPOS>ATOM
      1  O1        -0.0930   -0.3710   -0.4630 O.2     1  UNL1       -0.2738
      2  C1        -0.0590    0.6210   -1.2330 C.2     1  UNL1        0.2364
      3  C2        -1.2950    1.2830   -1.7080 C.3     1  UNL1        0.0835
      4  C3        -2.4520    0.5680   -1.1210 C.ar    1  UNL1        0.1192
      5  N1        -2.9890    0.9170    0.0410 N.ar    1  UNL1       -0.2332
      6  C4        -4.0400    0.2440    0.5460 C.ar    1  UNL1        0.0782
      7  C5        -4.6070    0.5930    1.7480 C.ar    1  UNL1       -0.0355
      8  C6        -5.6930   -0.0960    2.2790 C.ar    1  UNL1       -0.0597
      9  C7        -6.2220   -1.1570    1.5890 C.ar    1  UNL1       -0.0609
     10  C8        -5.6730   -1.5290    0.3810 C.ar    1  UNL1       -0.0474
     11  C9        -4.5850   -0.8260   -0.1320 C.ar    1  UNL1        0.0647
     12  C10       -4.0120   -1.1730   -1.3400 C.ar    1  UNL1        0.2592
     13  O2        -4.4710   -2.1290   -1.9830 O.2     1  UNL1       -0.2672
     14  N2        -2.9690   -0.4700   -1.7960 N.ar    1  UNL1       -0.3100
     15  N3         1.1920    1.1060   -1.6480 N.am    1  UNL1       -0.2338
     16  N4         2.4130    0.5470   -1.2530 N.am    1  UNL1       -0.2304
     17  C11        3.1160    0.9420   -0.1000 C.2     1  UNL1        0.2601
     18  O3         2.6150    1.8450    0.6060 O.2     1  UNL1       -0.2687
     19  C12        4.3970    0.3580    0.3200 C.ar    1  UNL1        0.0383
     20  C13        5.0420    0.8140    1.4580 C.ar    1  UNL1       -0.0469
     21  C14        6.2430    0.2950    1.8910 C.ar    1  UNL1       -0.0257
     22  C15        6.8620   -0.7190    1.1920 C.ar    1  UNL1        0.1234
     23  F1         8.0470   -1.2230    1.6290 F       1  UNL1       -0.2055
     24  C16        6.2380   -1.1860    0.0570 C.ar    1  UNL1       -0.0257
     25  C17        5.0180   -0.6560   -0.3770 C.ar    1  UNL1       -0.0469
     26 H          -1.3438    1.2375   -2.7759 H       1  UNL1        0.0438
     27 H          -1.3037    2.3109   -1.4110 H       1  UNL1        0.0438
     28 H          -4.2154    1.3905    2.2730 H       1  UNL1        0.0639
     29 H          -6.0973    0.1889    3.1848 H       1  UNL1        0.0618
     30 H          -7.0280   -1.6746    1.9730 H       1  UNL1        0.0618
     31 H          -6.0668   -2.3264   -0.1424 H       1  UNL1        0.0626
     32 H          -2.5663   -0.7234   -2.6579 H       1  UNL1        0.1701
     33 H           1.2113    1.8837   -2.2513 H       1  UNL1        0.1728
     34 H           2.8019   -0.1627   -1.8137 H       1  UNL1        0.1731
     35 H           4.6054    1.5733    2.0038 H       1  UNL1        0.0626
     36 H           6.6829    0.6689    2.7464 H       1  UNL1        0.0646
     37 H           6.6802   -1.9441   -0.4859 H       1  UNL1        0.0646
     38 H           4.5766   -1.0299   -1.2316 H       1  UNL1        0.0626
@<TRIPOS>BOND
     1     1     2    2
     2     2     3    1
     3     2    15   am
     4     3     4    1
     5     4     5   ar
     6     4    14   ar
     7     5     6   ar
     8     6     7   ar
     9     6    11   ar
    10     7     8   ar
    11     8     9   ar
    12     9    10   ar
    13    10    11   ar
    14    11    12   ar
    15    12    13    2
    16    12    14   ar
    17    15    16    1
    18    16    17   am
    19    17    18    2
    20    17    19    1
    21    19    20   ar
    22    19    25   ar
    23    20    21   ar
    24    21    22   ar
    25    22    23    1
    26    22    24   ar
    27    24    25   ar
    28     3    26    1
    29     3    27    1
    30     7    28    1
    31     8    29    1
    32     9    30    1
    33    10    31    1
    34    14    32    1
    35    15    33    1
    36    16    34    1
    37    20    35    1
    38    21    36    1
    39    24    37    1
    40    25    38    1
@<TRIPOS>MOLECULE
../data/bude_mols_rdkit_confs2/molecule_66.pdb
 38 40 0 0 0
SMALL
GASTEIGER

@<TRIPOS>ATOM
      1  O1         0.4630   -0.2690    1.5770 O.2     1  UNL1       -0.2738
      2  C1         0.1760    0.5290    0.6350 C.2     1  UNL1        0.2364
      3  C2        -1.0320    1.3500    0.6440 C.3     1  UNL1        0.0835
      4  C3        -2.3020    0.5990    0.5910 C.ar    1  UNL1        0.1192
      5  N1        -3.4520    1.3520    0.4840 N.ar    1  UNL1       -0.2332
      6  C4        -4.6340    0.7810    0.4120 C.ar    1  UNL1        0.0782
      7  C5        -5.8020    1.5430    0.3030 C.ar    1  UNL1       -0.0355
      8  C6        -7.0570    1.0050    0.2250 C.ar    1  UNL1       -0.0597
      9  C7        -7.1880   -0.3520    0.2550 C.ar    1  UNL1       -0.0609
     10  C8        -6.0510   -1.1620    0.3630 C.ar    1  UNL1       -0.0474
     11  C9        -4.8040   -0.6080    0.4390 C.ar    1  UNL1        0.0647
     12  C10       -3.6620   -1.3520    0.5490 C.ar    1  UNL1        0.2592
     13  O2        -3.7240   -2.6310    0.5840 O.2     1  UNL1       -0.2672
     14  N2        -2.4650   -0.7120    0.6180 N.ar    1  UNL1       -0.3100
     15  N3         1.0540    0.6320   -0.4480 N.am    1  UNL1       -0.2338
     16  N4         2.2880    0.0050   -0.6400 N.am    1  UNL1       -0.2304
     17  C11        3.4080    0.3590    0.1690 C.2     1  UNL1        0.2601
     18  O3         3.1760    1.2270    1.0730 O.2     1  UNL1       -0.2687
     19  C12        4.7590   -0.1380    0.0680 C.ar    1  UNL1        0.0383
     20  C13        5.6570    0.4840   -0.8140 C.ar    1  UNL1       -0.0469
     21  C14        6.9680    0.0940   -0.9300 C.ar    1  UNL1       -0.0257
     22  C15        7.4670   -0.9560   -0.1650 C.ar    1  UNL1        0.1234
     23  F1         8.7710   -1.3230   -0.2890 F       1  UNL1       -0.2055
     24  C16        6.6050   -1.5740    0.7000 C.ar    1  UNL1       -0.0257
     25  C17        5.2760   -1.1720    0.8120 C.ar    1  UNL1       -0.0469
     26 H          -0.9964    2.0008   -0.2046 H       1  UNL1        0.0438
     27 H          -1.0321    1.8684    1.5800 H       1  UNL1        0.0438
     28 H          -5.7115    2.5708    0.2801 H       1  UNL1        0.0639
     29 H          -7.8871    1.6130    0.1452 H       1  UNL1        0.0618
     30 H          -8.1246   -0.7817    0.1981 H       1  UNL1        0.0618
     31 H          -6.1558   -2.1884    0.3855 H       1  UNL1        0.0626
     32 H          -1.6564   -1.2685    0.6940 H       1  UNL1        0.1701
     33 H           0.7629    1.2282   -1.1754 H       1  UNL1        0.1728
     34 H           2.3847   -0.6840   -1.3366 H       1  UNL1        0.1731
     35 H           5.3183    1.2647   -1.3978 H       1  UNL1        0.0626
     36 H           7.5901    0.5845   -1.5914 H       1  UNL1        0.0646
     37 H           6.9470   -2.3547    1.2818 H       1  UNL1        0.0646
     38 H           4.6592   -1.6666    1.4753 H       1  UNL1        0.0626
@<TRIPOS>BOND
     1     1     2    2
     2     2     3    1
     3     2    15   am
     4     3     4    1
     5     4     5   ar
     6     4    14   ar
     7     5     6   ar
     8     6     7   ar
     9     6    11   ar
    10     7     8   ar
    11     8     9   ar
    12     9    10   ar
    13    10    11   ar
    14    11    12   ar
    15    12    13    2
    16    12    14   ar
    17    15    16    1
    18    16    17   am
    19    17    18    2
    20    17    19    1
    21    19    20   ar
    22    19    25   ar
    23    20    21   ar
    24    21    22   ar
    25    22    23    1
    26    22    24   ar
    27    24    25   ar
    28     3    26    1
    29     3    27    1
    30     7    28    1
    31     8    29    1
    32     9    30    1
    33    10    31    1
    34    14    32    1
    35    15    33    1
    36    16    34    1
    37    20    35    1
    38    21    36    1
    39    24    37    1
    40    25    38    1
@<TRIPOS>MOLECULE
../data/bude_mols_rdkit_confs2/molecule_66.pdb
 38 40 0 0 0
SMALL
GASTEIGER

@<TRIPOS>ATOM
      1  O1         0.1170   -0.6410    0.0060 O.2     1  UNL1       -0.2738
      2  C1         0.0580   -0.8590   -1.2220 C.2     1  UNL1        0.2364
      3  C2        -1.2180   -0.9440   -1.9390 C.3     1  UNL1        0.0835
      4  C3        -2.3950   -0.7400   -1.0560 C.ar    1  UNL1        0.1192
      5  N1        -2.8880    0.5000   -0.8820 N.ar    1  UNL1       -0.2332
      6  C4        -3.9420    0.7710   -0.1040 C.ar    1  UNL1        0.0782
      7  C5        -4.4270    2.0580    0.0550 C.ar    1  UNL1       -0.0355
      8  C6        -5.5250    2.3210    0.8710 C.ar    1  UNL1       -0.0597
      9  C7        -6.1420    1.2840    1.5310 C.ar    1  UNL1       -0.0609
     10  C8        -5.6850   -0.0090    1.3950 C.ar    1  UNL1       -0.0474
     11  C9        -4.5800   -0.2490    0.5710 C.ar    1  UNL1        0.0647
     12  C10       -4.0820   -1.5220    0.3980 C.ar    1  UNL1        0.2592
     13  O2        -4.6460   -2.4640    1.0010 O.2     1  UNL1       -0.2672
     14  N2        -3.0110   -1.7410   -0.4020 N.ar    1  UNL1       -0.3100
     15  N3         1.2660   -1.0280   -1.9340 N.am    1  UNL1       -0.2338
     16  N4         2.5350   -0.9640   -1.3370 N.am    1  UNL1       -0.2304
     17  C11        2.9520    0.1110   -0.5130 C.2     1  UNL1        0.2601
     18  O3         2.1150    1.0350   -0.3300 O.2     1  UNL1       -0.2687
     19  C12        4.2620    0.2030    0.1180 C.ar    1  UNL1        0.0383
     20  C13        5.2680   -0.7100   -0.0960 C.ar    1  UNL1       -0.0469
     21  C14        6.5060   -0.5830    0.5310 C.ar    1  UNL1       -0.0257
     22  C15        6.7720    0.4620    1.3900 C.ar    1  UNL1        0.1234
     23  F1         7.9750    0.6020    2.0100 F       1  UNL1       -0.2055
     24  C16        5.7660    1.3790    1.6070 C.ar    1  UNL1       -0.0257
     25  C17        4.5380    1.2440    0.9780 C.ar    1  UNL1       -0.0469
     26 H          -1.2927   -1.9122   -2.3884 H       1  UNL1        0.0438
     27 H          -1.2270   -0.1625   -2.6698 H       1  UNL1        0.0438
     28 H          -3.9663    2.8373   -0.4404 H       1  UNL1        0.0639
     29 H          -5.8728    3.2866    0.9794 H       1  UNL1        0.0618
     30 H          -6.9564    1.4763    2.1349 H       1  UNL1        0.0618
     31 H          -6.1491   -0.7856    1.8916 H       1  UNL1        0.0626
     32 H          -2.6736   -2.6598   -0.5078 H       1  UNL1        0.1701
     33 H           1.2154   -1.2001   -2.9020 H       1  UNL1        0.1728
     34 H           3.1662   -1.7021   -1.4987 H       1  UNL1        0.1731
     35 H           5.1028   -1.5047   -0.7334 H       1  UNL1        0.0626
     36 H           7.2391   -1.2860    0.3485 H       1  UNL1        0.0646
     37 H           5.9287    2.1743    2.2443 H       1  UNL1        0.0646
     38 H           3.8051    1.9474    1.1600 H       1  UNL1        0.0626
@<TRIPOS>BOND
     1     1     2    2
     2     2     3    1
     3     2    15   am
     4     3     4    1
     5     4     5   ar
     6     4    14   ar
     7     5     6   ar
     8     6     7   ar
     9     6    11   ar
    10     7     8   ar
    11     8     9   ar
    12     9    10   ar
    13    10    11   ar
    14    11    12   ar
    15    12    13    2
    16    12    14   ar
    17    15    16    1
    18    16    17   am
    19    17    18    2
    20    17    19    1
    21    19    20   ar
    22    19    25   ar
    23    20    21   ar
    24    21    22   ar
    25    22    23    1
    26    22    24   ar
    27    24    25   ar
    28     3    26    1
    29     3    27    1
    30     7    28    1
    31     8    29    1
    32     9    30    1
    33    10    31    1
    34    14    32    1
    35    15    33    1
    36    16    34    1
    37    20    35    1
    38    21    36    1
    39    24    37    1
    40    25    38    1
@<TRIPOS>MOLECULE
../data/bude_mols_rdkit_confs2/molecule_66.pdb
 38 40 0 0 0
SMALL
GASTEIGER

@<TRIPOS>ATOM
      1  O1        -0.0740   -0.2050   -0.1910 O.2     1  UNL1       -0.2738
      2  C1        -0.0920    0.9680   -0.6470 C.2     1  UNL1        0.2364
      3  C2        -1.3350    1.7450   -0.6900 C.3     1  UNL1        0.0835
      4  C3        -2.4950    1.0300   -0.1320 C.ar    1  UNL1        0.1192
      5  N1        -3.1760    0.0880   -0.8140 N.ar    1  UNL1       -0.2332
      6  C4        -4.2370   -0.5070   -0.2160 C.ar    1  UNL1        0.0782
      7  C5        -4.9610   -1.4920   -0.8880 C.ar    1  UNL1       -0.0355
      8  C6        -6.0400   -2.1160   -0.2970 C.ar    1  UNL1       -0.0597
      9  C7        -6.4050   -1.7470    0.9990 C.ar    1  UNL1       -0.0609
     10  C8        -5.7120   -0.7780    1.6900 C.ar    1  UNL1       -0.0474
     11  C9        -4.6360   -0.1810    1.0570 C.ar    1  UNL1        0.0647
     12  C10       -3.9280    0.7930    1.7530 C.ar    1  UNL1        0.2592
     13  O2        -4.2820    1.0990    2.9110 O.2     1  UNL1       -0.2672
     14  N2        -2.8930    1.3430    1.1120 N.ar    1  UNL1       -0.3100
     15  N3         1.1670    1.4730   -1.1110 N.am    1  UNL1       -0.2338
     16  N4         2.3220    0.6880   -1.0540 N.am    1  UNL1       -0.2304
     17  C11        3.4470    0.9910   -0.2740 C.2     1  UNL1        0.2601
     18  O3         3.4280    2.0430    0.4340 O.2     1  UNL1       -0.2687
     19  C12        4.6570    0.1560   -0.2240 C.ar    1  UNL1        0.0383
     20  C13        5.6120    0.3590    0.7450 C.ar    1  UNL1       -0.0469
     21  C14        6.7720   -0.4150    0.8090 C.ar    1  UNL1       -0.0257
     22  C15        6.9310   -1.3950   -0.1360 C.ar    1  UNL1        0.1234
     23  F1         8.0780   -2.1300   -0.0400 F       1  UNL1       -0.2055
     24  C16        5.9860   -1.6060   -1.1050 C.ar    1  UNL1       -0.0257
     25  C17        4.8480   -0.8340   -1.1540 C.ar    1  UNL1       -0.0469
     26 H          -1.5465    1.9892   -1.7101 H       1  UNL1        0.0438
     27 H          -1.1825    2.6157   -0.0871 H       1  UNL1        0.0438
     28 H          -4.6841   -1.7590   -1.8456 H       1  UNL1        0.0639
     29 H          -6.5683   -2.8431   -0.8042 H       1  UNL1        0.0618
     30 H          -7.2105   -2.2098    1.4484 H       1  UNL1        0.0618
     31 H          -5.9858   -0.5064    2.6472 H       1  UNL1        0.0626
     32 H          -2.3803    2.0340    1.5904 H       1  UNL1        0.1701
     33 H           1.2188    2.3862   -1.4752 H       1  UNL1        0.1728
     34 H           2.3473   -0.1323   -1.5978 H       1  UNL1        0.1731
     35 H           5.4669    1.1042    1.4441 H       1  UNL1        0.0626
     36 H           7.4828   -0.2554    1.5400 H       1  UNL1        0.0646
     37 H           6.1289   -2.3509   -1.8048 H       1  UNL1        0.0646
     38 H           4.1411   -0.9992   -1.8875 H       1  UNL1        0.0626
@<TRIPOS>BOND
     1     1     2    2
     2     2     3    1
     3     2    15   am
     4     3     4    1
     5     4     5   ar
     6     4    14   ar
     7     5     6   ar
     8     6     7   ar
     9     6    11   ar
    10     7     8   ar
    11     8     9   ar
    12     9    10   ar
    13    10    11   ar
    14    11    12   ar
    15    12    13    2
    16    12    14   ar
    17    15    16    1
    18    16    17   am
    19    17    18    2
    20    17    19    1
    21    19    20   ar
    22    19    25   ar
    23    20    21   ar
    24    21    22   ar
    25    22    23    1
    26    22    24   ar
    27    24    25   ar
    28     3    26    1
    29     3    27    1
    30     7    28    1
    31     8    29    1
    32     9    30    1
    33    10    31    1
    34    14    32    1
    35    15    33    1
    36    16    34    1
    37    20    35    1
    38    21    36    1
    39    24    37    1
    40    25    38    1
@<TRIPOS>MOLECULE
../data/bude_mols_rdkit_confs2/molecule_66.pdb
 38 40 0 0 0
SMALL
GASTEIGER

@<TRIPOS>ATOM
      1  O1        -0.1310    0.3750    0.3660 O.2     1  UNL1       -0.2738
      2  C1        -0.1180   -0.5940   -0.4160 C.2     1  UNL1        0.2364
      3  C2        -1.3590   -1.3300   -0.7490 C.3     1  UNL1        0.0835
      4  C3        -2.5700   -0.7870   -0.0870 C.ar    1  UNL1        0.1192
      5  N1        -3.2400    0.2540   -0.6540 N.ar    1  UNL1       -0.2332
      6  C4        -4.3500    0.7400   -0.0710 C.ar    1  UNL1        0.0782
      7  C5        -5.0530    1.8010   -0.6300 C.ar    1  UNL1       -0.0355
      8  C6        -6.1810    2.2890   -0.0360 C.ar    1  UNL1       -0.0597
      9  C7        -6.6780    1.7620    1.1370 C.ar    1  UNL1       -0.0609
     10  C8        -5.9780    0.7150    1.6830 C.ar    1  UNL1       -0.0474
     11  C9        -4.8260    0.1990    1.0980 C.ar    1  UNL1        0.0647
     12  C10       -4.1500   -0.8560    1.6760 C.ar    1  UNL1        0.2592
     13  O2        -4.5720   -1.3590    2.7390 O.2     1  UNL1       -0.2672
     14  N2        -3.0360   -1.3050    1.0430 N.ar    1  UNL1       -0.3100
     15  N3         1.0880   -1.0150   -1.0090 N.am    1  UNL1       -0.2338
     16  N4         2.3210   -0.4080   -0.7820 N.am    1  UNL1       -0.2304
     17  C11        3.4740   -1.0830   -0.3400 C.2     1  UNL1        0.2601
     18  O3         3.3610   -2.3280   -0.1310 O.2     1  UNL1       -0.2687
     19  C12        4.7800   -0.4860   -0.1010 C.ar    1  UNL1        0.0383
     20  C13        5.8670   -1.2440    0.2740 C.ar    1  UNL1       -0.0469
     21  C14        7.1120   -0.7090    0.5000 C.ar    1  UNL1       -0.0257
     22  C15        7.3080    0.6470    0.3520 C.ar    1  UNL1        0.1234
     23  F1         8.5190    1.2070    0.5680 F       1  UNL1       -0.2055
     24  C16        6.2590    1.4510   -0.0200 C.ar    1  UNL1       -0.0257
     25  C17        5.0060    0.8690   -0.2420 C.ar    1  UNL1       -0.0469
     26 H          -1.2381   -2.3497   -0.4482 H       1  UNL1        0.0438
     27 H          -1.5081   -1.2305   -1.8039 H       1  UNL1        0.0438
     28 H          -4.7168    2.2265   -1.5080 H       1  UNL1        0.0639
     29 H          -6.6776    3.0777   -0.4792 H       1  UNL1        0.0618
     30 H          -7.5315    2.1351    1.5813 H       1  UNL1        0.0618
     31 H          -6.3195    0.2944    2.5614 H       1  UNL1        0.0626
     32 H          -2.5456   -2.0580    1.4451 H       1  UNL1        0.1701
     33 H           1.0578   -1.7853   -1.6213 H       1  UNL1        0.1728
     34 H           2.3907    0.5609   -0.9419 H       1  UNL1        0.1731
     35 H           5.7403   -2.2615    0.3907 H       1  UNL1        0.0626
     36 H           7.8961   -1.3192    0.7791 H       1  UNL1        0.0646
     37 H           6.3925    2.4680   -0.1340 H       1  UNL1        0.0646
     38 H           4.2199    1.4762   -0.5221 H       1  UNL1        0.0626
@<TRIPOS>BOND
     1     1     2    2
     2     2     3    1
     3     2    15   am
     4     3     4    1
     5     4     5   ar
     6     4    14   ar
     7     5     6   ar
     8     6     7   ar
     9     6    11   ar
    10     7     8   ar
    11     8     9   ar
    12     9    10   ar
    13    10    11   ar
    14    11    12   ar
    15    12    13    2
    16    12    14   ar
    17    15    16    1
    18    16    17   am
    19    17    18    2
    20    17    19    1
    21    19    20   ar
    22    19    25   ar
    23    20    21   ar
    24    21    22   ar
    25    22    23    1
    26    22    24   ar
    27    24    25   ar
    28     3    26    1
    29     3    27    1
    30     7    28    1
    31     8    29    1
    32     9    30    1
    33    10    31    1
    34    14    32    1
    35    15    33    1
    36    16    34    1
    37    20    35    1
    38    21    36    1
    39    24    37    1
    40    25    38    1
@<TRIPOS>MOLECULE
../data/bude_mols_rdkit_confs2/molecule_66.pdb
 38 40 0 0 0
SMALL
GASTEIGER

@<TRIPOS>ATOM
      1  O1        -0.0580    0.3790    1.5220 O.2     1  UNL1       -0.2738
      2  C1        -0.0250   -0.7700    1.0300 C.2     1  UNL1        0.2364
      3  C2        -1.1930   -1.6760    1.3050 C.3     1  UNL1        0.0835
      4  C3        -2.3760   -0.9840    0.8160 C.ar    1  UNL1        0.1192
      5  N1        -3.4390   -0.7400    1.5100 N.ar    1  UNL1       -0.2332
      6  C4        -4.5320   -0.0700    1.1430 C.ar    1  UNL1        0.0782
      7  C5        -5.6160    0.1500    1.9430 C.ar    1  UNL1       -0.0355
      8  C6        -6.7050    0.8790    1.4560 C.ar    1  UNL1       -0.0597
      9  C7        -6.6310    1.3400    0.1900 C.ar    1  UNL1       -0.0609
     10  C8        -5.5250    1.1320   -0.6590 C.ar    1  UNL1       -0.0474
     11  C9        -4.4770    0.4180   -0.1640 C.ar    1  UNL1        0.0647
     12  C10       -3.3480    0.1960   -0.9860 C.ar    1  UNL1        0.2592
     13  O2        -3.3740    0.6550   -2.1390 O.2     1  UNL1       -0.2672
     14  N2        -2.3280   -0.5060   -0.4610 N.ar    1  UNL1       -0.3100
     15  N3         1.0550   -1.1940    0.2520 N.am    1  UNL1       -0.2338
     16  N4         2.1470   -0.3960   -0.0400 N.am    1  UNL1       -0.2304
     17  C11        3.4710   -0.9680    0.1500 C.2     1  UNL1        0.2601
     18  O3         3.5420   -2.1220    0.5870 O.2     1  UNL1       -0.2687
     19  C12        4.6500   -0.2060   -0.1630 C.ar    1  UNL1        0.0383
     20  C13        5.8730   -0.6120    0.3390 C.ar    1  UNL1       -0.0469
     21  C14        7.0350    0.0830    0.0250 C.ar    1  UNL1       -0.0257
     22  C15        6.9920    1.1810   -0.7840 C.ar    1  UNL1        0.1234
     23  F1         8.1540    1.8510   -1.0840 F       1  UNL1       -0.2055
     24  C16        5.7800    1.5870   -1.2820 C.ar    1  UNL1       -0.0257
     25  C17        4.5930    0.8950   -0.9760 C.ar    1  UNL1       -0.0469
     26 H          -1.2796   -1.8591    2.3557 H       1  UNL1        0.0438
     27 H          -1.0708   -2.6228    0.8217 H       1  UNL1        0.0438
     28 H          -5.6316   -0.2212    2.9058 H       1  UNL1        0.0639
     29 H          -7.5347    1.0579    2.0430 H       1  UNL1        0.0618
     30 H          -7.4316    1.8767   -0.1786 H       1  UNL1        0.0618
     31 H          -5.5104    1.5072   -1.6203 H       1  UNL1        0.0626
     32 H          -1.5293   -0.6787   -1.0101 H       1  UNL1        0.1701
     33 H           1.0383   -2.1102   -0.1080 H       1  UNL1        0.1728
     34 H           2.0320    0.5262   -0.3648 H       1  UNL1        0.1731
     35 H           5.9234   -1.4398    0.9532 H       1  UNL1        0.0626
     36 H           7.9393   -0.2346    0.4075 H       1  UNL1        0.0646
     37 H           5.7376    2.4171   -1.8937 H       1  UNL1        0.0646
     38 H           3.6897    1.2137   -1.3600 H       1  UNL1        0.0626
@<TRIPOS>BOND
     1     1     2    2
     2     2     3    1
     3     2    15   am
     4     3     4    1
     5     4     5   ar
     6     4    14   ar
     7     5     6   ar
     8     6     7   ar
     9     6    11   ar
    10     7     8   ar
    11     8     9   ar
    12     9    10   ar
    13    10    11   ar
    14    11    12   ar
    15    12    13    2
    16    12    14   ar
    17    15    16    1
    18    16    17   am
    19    17    18    2
    20    17    19    1
    21    19    20   ar
    22    19    25   ar
    23    20    21   ar
    24    21    22   ar
    25    22    23    1
    26    22    24   ar
    27    24    25   ar
    28     3    26    1
    29     3    27    1
    30     7    28    1
    31     8    29    1
    32     9    30    1
    33    10    31    1
    34    14    32    1
    35    15    33    1
    36    16    34    1
    37    20    35    1
    38    21    36    1
    39    24    37    1
    40    25    38    1
@<TRIPOS>MOLECULE
../data/bude_mols_rdkit_confs2/molecule_66.pdb
 38 40 0 0 0
SMALL
GASTEIGER

@<TRIPOS>ATOM
      1  O1        -0.1830   -0.5430   -0.0250 O.2     1  UNL1       -0.2738
      2  C1        -0.2030   -0.1710    1.1830 C.2     1  UNL1        0.2364
      3  C2        -1.5110   -0.1830    1.9110 C.3     1  UNL1        0.0835
      4  C3        -2.5970   -0.5810    0.9730 C.ar    1  UNL1        0.1192
      5  N1        -3.2820    0.4040    0.3780 N.ar    1  UNL1       -0.2332
      6  C4        -4.2550    0.2640   -0.5030 C.ar    1  UNL1        0.0782
      7  C5        -4.9030    1.3580   -1.0710 C.ar    1  UNL1       -0.0355
      8  C6        -5.9000    1.1450   -1.9870 C.ar    1  UNL1       -0.0597
      9  C7        -6.2380   -0.1290   -2.3270 C.ar    1  UNL1       -0.0609
     10  C8        -5.6050   -1.2290   -1.7710 C.ar    1  UNL1       -0.0474
     11  C9        -4.6030   -1.0350   -0.8490 C.ar    1  UNL1        0.0647
     12  C10       -3.9030   -2.0580   -0.2420 C.ar    1  UNL1        0.2592
     13  O2        -4.2020   -3.2560   -0.5420 O.2     1  UNL1       -0.2672
     14  N2        -2.9120   -1.8420    0.6590 N.ar    1  UNL1       -0.3100
     15  N3         1.0290    0.2310    1.7490 N.am    1  UNL1       -0.2338
     16  N4         2.2190    0.2180    1.0080 N.am    1  UNL1       -0.2304
     17  C11        3.4800    0.6500    1.4170 C.2     1  UNL1        0.2601
     18  O3         3.5900    1.1060    2.5750 O.2     1  UNL1       -0.2687
     19  C12        4.6730    0.6030    0.5800 C.ar    1  UNL1        0.0383
     20  C13        5.8180    1.2790    0.9490 C.ar    1  UNL1       -0.0469
     21  C14        6.9660    1.2660    0.1950 C.ar    1  UNL1       -0.0257
     22  C15        6.9710    0.5470   -0.9810 C.ar    1  UNL1        0.1234
     23  F1         8.0700    0.4900   -1.7800 F       1  UNL1       -0.2055
     24  C16        5.8370   -0.1500   -1.3900 C.ar    1  UNL1       -0.0257
     25  C17        4.6810   -0.1140   -0.5910 C.ar    1  UNL1       -0.0469
     26 H          -1.7134    0.7942    2.2971 H       1  UNL1        0.0438
     27 H          -1.4632   -0.8827    2.7191 H       1  UNL1        0.0438
     28 H          -4.6354    2.3186   -0.8051 H       1  UNL1        0.0639
     29 H          -6.3910    1.9449   -2.4160 H       1  UNL1        0.0618
     30 H          -6.9881   -0.2801   -3.0195 H       1  UNL1        0.0618
     31 H          -5.8826   -2.1842   -2.0459 H       1  UNL1        0.0626
     32 H          -2.4351   -2.5974    1.0727 H       1  UNL1        0.1701
     33 H           1.0516    0.5276    2.6875 H       1  UNL1        0.1728
     34 H           2.1571   -0.1376    0.0921 H       1  UNL1        0.1731
     35 H           5.8115    1.8175    1.8293 H       1  UNL1        0.0626
     36 H           7.8052    1.7825    0.5018 H       1  UNL1        0.0646
     37 H           5.8452   -0.6876   -2.2709 H       1  UNL1        0.0646
     38 H           3.8359   -0.6280   -0.8854 H       1  UNL1        0.0626
@<TRIPOS>BOND
     1     1     2    2
     2     2     3    1
     3     2    15   am
     4     3     4    1
     5     4     5   ar
     6     4    14   ar
     7     5     6   ar
     8     6     7   ar
     9     6    11   ar
    10     7     8   ar
    11     8     9   ar
    12     9    10   ar
    13    10    11   ar
    14    11    12   ar
    15    12    13    2
    16    12    14   ar
    17    15    16    1
    18    16    17   am
    19    17    18    2
    20    17    19    1
    21    19    20   ar
    22    19    25   ar
    23    20    21   ar
    24    21    22   ar
    25    22    23    1
    26    22    24   ar
    27    24    25   ar
    28     3    26    1
    29     3    27    1
    30     7    28    1
    31     8    29    1
    32     9    30    1
    33    10    31    1
    34    14    32    1
    35    15    33    1
    36    16    34    1
    37    20    35    1
    38    21    36    1
    39    24    37    1
    40    25    38    1
@<TRIPOS>MOLECULE
../data/bude_mols_rdkit_confs2/molecule_66.pdb
 38 40 0 0 0
SMALL
GASTEIGER

@<TRIPOS>ATOM
      1  O1        -0.2410    0.1930    0.1110 O.2     1  UNL1       -0.2738
      2  C1         0.0010   -0.9780    0.5180 C.2     1  UNL1        0.2364
      3  C2        -1.1140   -1.9540    0.6350 C.3     1  UNL1        0.0835
      4  C3        -2.3910   -1.3170    0.2190 C.ar    1  UNL1        0.1192
      5  N1        -3.1320   -0.6960    1.1500 N.ar    1  UNL1       -0.2332
      6  C4        -4.2890   -0.1180    0.7690 C.ar    1  UNL1        0.0782
      7  C5        -5.0420    0.5170    1.7280 C.ar    1  UNL1       -0.0355
      8  C6        -6.2240    1.1050    1.3320 C.ar    1  UNL1       -0.0597
      9  C7        -6.6270    1.0530    0.0180 C.ar    1  UNL1       -0.0609
     10  C8        -5.8410    0.4020   -0.9270 C.ar    1  UNL1       -0.0474
     11  C9        -4.6620   -0.1900   -0.5570 C.ar    1  UNL1        0.0647
     12  C10       -3.8700   -0.8430   -1.4990 C.ar    1  UNL1        0.2592
     13  O2        -4.2520   -0.8790   -2.6830 O.2     1  UNL1       -0.2672
     14  N2        -2.7260   -1.4030   -1.0700 N.ar    1  UNL1       -0.3100
     15  N3         1.3310   -1.3030    0.8440 N.am    1  UNL1       -0.2338
     16  N4         2.4100   -0.3830    0.7400 N.am    1  UNL1       -0.2304
     17  C11        3.5030   -0.6320   -0.1260 C.2     1  UNL1        0.2601
     18  O3         3.4900   -1.6870   -0.7980 O.2     1  UNL1       -0.2687
     19  C12        4.6180    0.2790   -0.2600 C.ar    1  UNL1        0.0383
     20  C13        4.6790    1.4960    0.3990 C.ar    1  UNL1       -0.0469
     21  C14        5.8010    2.2980    0.2010 C.ar    1  UNL1       -0.0257
     22  C15        6.8450    1.9470   -0.6090 C.ar    1  UNL1        0.1234
     23  F1         7.9080    2.7740   -0.7580 F       1  UNL1       -0.2055
     24  C16        6.7500    0.7250   -1.2510 C.ar    1  UNL1       -0.0257
     25  C17        5.6670   -0.1080   -1.0930 C.ar    1  UNL1       -0.0469
     26 H          -1.1948   -2.2800    1.6509 H       1  UNL1        0.0438
     27 H          -0.9158   -2.7923    0.0003 H       1  UNL1        0.0438
     28 H          -4.7325    0.5523    2.7119 H       1  UNL1        0.0639
     29 H          -6.8123    1.5890    2.0282 H       1  UNL1        0.0618
     30 H          -7.5136    1.4975   -0.2671 H       1  UNL1        0.0618
     31 H          -6.1474    0.3647   -1.9118 H       1  UNL1        0.0626
     32 H          -2.1380   -1.8743   -1.7035 H       1  UNL1        0.1701
     33 H           1.5243   -2.2150    1.1606 H       1  UNL1        0.1728
     34 H           2.3973    0.4408    1.2788 H       1  UNL1        0.1731
     35 H           3.9134    1.8006    1.0204 H       1  UNL1        0.0626
     36 H           5.8464    3.2048    0.6916 H       1  UNL1        0.0646
     37 H           7.5197    0.4278   -1.8709 H       1  UNL1        0.0646
     38 H           5.6311   -1.0131   -1.5875 H       1  UNL1        0.0626
@<TRIPOS>BOND
     1     1     2    2
     2     2     3    1
     3     2    15   am
     4     3     4    1
     5     4     5   ar
     6     4    14   ar
     7     5     6   ar
     8     6     7   ar
     9     6    11   ar
    10     7     8   ar
    11     8     9   ar
    12     9    10   ar
    13    10    11   ar
    14    11    12   ar
    15    12    13    2
    16    12    14   ar
    17    15    16    1
    18    16    17   am
    19    17    18    2
    20    17    19    1
    21    19    20   ar
    22    19    25   ar
    23    20    21   ar
    24    21    22   ar
    25    22    23    1
    26    22    24   ar
    27    24    25   ar
    28     3    26    1
    29     3    27    1
    30     7    28    1
    31     8    29    1
    32     9    30    1
    33    10    31    1
    34    14    32    1
    35    15    33    1
    36    16    34    1
    37    20    35    1
    38    21    36    1
    39    24    37    1
    40    25    38    1
@<TRIPOS>MOLECULE
../data/bude_mols_rdkit_confs2/molecule_66.pdb
 38 40 0 0 0
SMALL
GASTEIGER

@<TRIPOS>ATOM
      1  O1        -0.2380    0.2970   -0.7630 O.2     1  UNL1       -0.2738
      2  C1        -0.1450   -0.9480   -0.8940 C.2     1  UNL1        0.2364
      3  C2        -1.2870   -1.8010   -1.4230 C.3     1  UNL1        0.0835
      4  C3        -2.5350   -1.0830   -1.0080 C.ar    1  UNL1        0.1192
      5  N1        -2.4960    0.0200   -0.2470 N.ar    1  UNL1       -0.2332
      6  C4        -3.6140    0.6540    0.2020 C.ar    1  UNL1        0.0782
      7  C5        -3.5760    1.7760    1.0050 C.ar    1  UNL1       -0.0355
      8  C6        -4.7460    2.3790    1.4610 C.ar    1  UNL1       -0.0597
      9  C7        -5.9610    1.8700    1.1190 C.ar    1  UNL1       -0.0609
     10  C8        -6.0370    0.7450    0.3180 C.ar    1  UNL1       -0.0474
     11  C9        -4.8630    0.1460   -0.1350 C.ar    1  UNL1        0.0647
     12  C10       -4.8900   -0.9970   -0.9260 C.ar    1  UNL1        0.2592
     13  O2        -6.0390   -1.4340   -1.2190 O.2     1  UNL1       -0.2672
     14  N2        -3.7500   -1.5750   -1.3370 N.ar    1  UNL1       -0.3100
     15  N3         1.0630   -1.5940   -0.5280 N.am    1  UNL1       -0.2338
     16  N4         2.1110   -0.8330   -0.0260 N.am    1  UNL1       -0.2304
     17  C11        3.4310   -0.9530   -0.5830 C.2     1  UNL1        0.2601
     18  O3         3.5310   -1.7810   -1.5510 O.2     1  UNL1       -0.2687
     19  C12        4.5680   -0.2010   -0.0840 C.ar    1  UNL1        0.0383
     20  C13        4.4840    0.4260    1.1350 C.ar    1  UNL1       -0.0469
     21  C14        5.5890    1.1380    1.6450 C.ar    1  UNL1       -0.0257
     22  C15        6.7310    1.1790    0.8960 C.ar    1  UNL1        0.1234
     23  F1         7.7780    1.8740    1.4320 F       1  UNL1       -0.2055
     24  C16        6.8220    0.5570   -0.3200 C.ar    1  UNL1       -0.0257
     25  C17        5.7170   -0.1410   -0.8150 C.ar    1  UNL1       -0.0469
     26 H          -1.2557   -2.7798   -0.9919 H       1  UNL1        0.0438
     27 H          -1.2328   -1.9305   -2.4838 H       1  UNL1        0.0438
     28 H          -2.6631    2.1759    1.2728 H       1  UNL1        0.0639
     29 H          -4.6912    3.2165    2.0616 H       1  UNL1        0.0618
     30 H          -6.8245    2.3229    1.4569 H       1  UNL1        0.0618
     31 H          -6.9553    0.3525    0.0580 H       1  UNL1        0.0626
     32 H          -3.8008   -2.3836   -1.8963 H       1  UNL1        0.1701
     33 H           1.1577   -2.5688   -0.6283 H       1  UNL1        0.1728
     34 H           1.9488   -0.2071    0.7164 H       1  UNL1        0.1731
     35 H           3.6089    0.3758    1.6797 H       1  UNL1        0.0626
     36 H           5.5367    1.6149    2.5587 H       1  UNL1        0.0646
     37 H           7.6970    0.6030   -0.8653 H       1  UNL1        0.0646
     38 H           5.7708   -0.6103   -1.7326 H       1  UNL1        0.0626
@<TRIPOS>BOND
     1     1     2    2
     2     2     3    1
     3     2    15   am
     4     3     4    1
     5     4     5   ar
     6     4    14   ar
     7     5     6   ar
     8     6     7   ar
     9     6    11   ar
    10     7     8   ar
    11     8     9   ar
    12     9    10   ar
    13    10    11   ar
    14    11    12   ar
    15    12    13    2
    16    12    14   ar
    17    15    16    1
    18    16    17   am
    19    17    18    2
    20    17    19    1
    21    19    20   ar
    22    19    25   ar
    23    20    21   ar
    24    21    22   ar
    25    22    23    1
    26    22    24   ar
    27    24    25   ar
    28     3    26    1
    29     3    27    1
    30     7    28    1
    31     8    29    1
    32     9    30    1
    33    10    31    1
    34    14    32    1
    35    15    33    1
    36    16    34    1
    37    20    35    1
    38    21    36    1
    39    24    37    1
    40    25    38    1
@<TRIPOS>MOLECULE
../data/bude_mols_rdkit_confs2/molecule_66.pdb
 38 40 0 0 0
SMALL
GASTEIGER

@<TRIPOS>ATOM
      1  O1        -0.1800   -0.1040    0.4290 O.2     1  UNL1       -0.2738
      2  C1         0.0430    1.1120    0.1210 C.2     1  UNL1        0.2364
      3  C2        -1.0890    2.0450   -0.1080 C.3     1  UNL1        0.0835
      4  C3        -2.3990    1.3710    0.1060 C.ar    1  UNL1        0.1192
      5  N1        -3.0330    0.7270   -0.8670 N.ar    1  UNL1       -0.2332
      6  C4        -4.2340    0.1260   -0.6130 C.ar    1  UNL1        0.0782
      7  C5        -4.9360   -0.5570   -1.5820 C.ar    1  UNL1       -0.0355
      8  C6        -6.1400   -1.1530   -1.2990 C.ar    1  UNL1       -0.0597
      9  C7        -6.6820   -1.0770   -0.0090 C.ar    1  UNL1       -0.0609
     10  C8        -5.9780   -0.3900    0.9690 C.ar    1  UNL1       -0.0474
     11  C9        -4.7790    0.1920    0.6510 C.ar    1  UNL1        0.0647
     12  C10       -4.1150    0.8650    1.6700 C.ar    1  UNL1        0.2592
     13  O2        -4.6110    0.9280    2.8240 O.2     1  UNL1       -0.2672
     14  N2        -2.9400    1.4350    1.3590 N.ar    1  UNL1       -0.3100
     15  N3         1.3890    1.5350    0.0100 N.am    1  UNL1       -0.2338
     16  N4         2.4770    0.6840    0.2280 N.am    1  UNL1       -0.2304
     17  C11        3.5840    0.5300   -0.6280 C.2     1  UNL1        0.2601
     18  O3         3.6300    1.1850   -1.6810 O.2     1  UNL1       -0.2687
     19  C12        4.6860   -0.3760   -0.3190 C.ar    1  UNL1        0.0383
     20  C13        4.6490   -1.2790    0.7270 C.ar    1  UNL1       -0.0469
     21  C14        5.7210   -2.1170    1.0080 C.ar    1  UNL1       -0.0257
     22  C15        6.8700   -2.0870    0.2580 C.ar    1  UNL1        0.1234
     23  F1         7.9270   -2.9120    0.5370 F       1  UNL1       -0.2055
     24  C16        6.9200   -1.1900   -0.7900 C.ar    1  UNL1       -0.0257
     25  C17        5.8560   -0.3620   -1.0640 C.ar    1  UNL1       -0.0469
     26 H          -1.0438    2.4072   -1.1138 H       1  UNL1        0.0438
     27 H          -1.0071    2.8521    0.5897 H       1  UNL1        0.0438
     28 H          -4.5502   -0.6217   -2.5370 H       1  UNL1        0.0639
     29 H          -6.6486   -1.6597   -2.0403 H       1  UNL1        0.0618
     30 H          -7.5867   -1.5232    0.2090 H       1  UNL1        0.0618
     31 H          -6.3539   -0.3179    1.9274 H       1  UNL1        0.0626
     32 H          -2.4485    1.9184    2.0618 H       1  UNL1        0.1701
     33 H           1.5677    2.4724   -0.2321 H       1  UNL1        0.1728
     34 H           2.4681    0.1455    1.0521 H       1  UNL1        0.1731
     35 H           3.8025   -1.3321    1.3149 H       1  UNL1        0.0626
     36 H           5.6517   -2.7768    1.7985 H       1  UNL1        0.0646
     37 H           7.7677   -1.1398   -1.3764 H       1  UNL1        0.0646
     38 H           5.9314    0.2959   -1.8555 H       1  UNL1        0.0626
@<TRIPOS>BOND
     1     1     2    2
     2     2     3    1
     3     2    15   am
     4     3     4    1
     5     4     5   ar
     6     4    14   ar
     7     5     6   ar
     8     6     7   ar
     9     6    11   ar
    10     7     8   ar
    11     8     9   ar
    12     9    10   ar
    13    10    11   ar
    14    11    12   ar
    15    12    13    2
    16    12    14   ar
    17    15    16    1
    18    16    17   am
    19    17    18    2
    20    17    19    1
    21    19    20   ar
    22    19    25   ar
    23    20    21   ar
    24    21    22   ar
    25    22    23    1
    26    22    24   ar
    27    24    25   ar
    28     3    26    1
    29     3    27    1
    30     7    28    1
    31     8    29    1
    32     9    30    1
    33    10    31    1
    34    14    32    1
    35    15    33    1
    36    16    34    1
    37    20    35    1
    38    21    36    1
    39    24    37    1
    40    25    38    1
@<TRIPOS>MOLECULE
../data/bude_mols_rdkit_confs2/molecule_66.pdb
 38 40 0 0 0
SMALL
GASTEIGER

@<TRIPOS>ATOM
      1  O1        -0.0380   -0.0920    0.8130 O.2     1  UNL1       -0.2738
      2  C1         0.0990   -1.2100    0.2360 C.2     1  UNL1        0.2364
      3  C2        -1.1130   -2.0110   -0.0410 C.3     1  UNL1        0.0835
      4  C3        -2.3720   -1.4180    0.3840 C.ar    1  UNL1        0.1192
      5  N1        -3.1260   -0.7570   -0.5260 N.ar    1  UNL1       -0.2332
      6  C4        -4.2950   -0.1810   -0.2720 C.ar    1  UNL1        0.0782
      7  C5        -5.0220    0.4820   -1.2680 C.ar    1  UNL1       -0.0355
      8  C6        -6.2370    1.0790   -1.0110 C.ar    1  UNL1       -0.0597
      9  C7        -6.7120    0.9950    0.2790 C.ar    1  UNL1       -0.0609
     10  C8        -6.0050    0.3390    1.2930 C.ar    1  UNL1       -0.0474
     11  C9        -4.8070   -0.2370    0.9930 C.ar    1  UNL1        0.0647
     12  C10       -4.0420   -0.9160    1.9500 C.ar    1  UNL1        0.2592
     13  O2        -4.5360   -0.9550    3.1130 O.2     1  UNL1       -0.2672
     14  N2        -2.8710   -1.4760    1.6270 N.ar    1  UNL1       -0.3100
     15  N3         1.4010   -1.6300   -0.1100 N.am    1  UNL1       -0.2338
     16  N4         2.5760   -0.9150    0.1340 N.am    1  UNL1       -0.2304
     17  C11        3.3950   -0.4220   -0.9110 C.2     1  UNL1        0.2601
     18  O3         3.0040   -0.6560   -2.0820 O.2     1  UNL1       -0.2687
     19  C12        4.6430    0.3280   -0.7030 C.ar    1  UNL1        0.0383
     20  C13        5.3000    0.8660   -1.7880 C.ar    1  UNL1       -0.0469
     21  C14        6.4660    1.5580   -1.6100 C.ar    1  UNL1       -0.0257
     22  C15        7.0050    1.7310   -0.3560 C.ar    1  UNL1        0.1234
     23  F1         8.1490    2.4100   -0.2000 F       1  UNL1       -0.2055
     24  C16        6.3420    1.1880    0.7290 C.ar    1  UNL1       -0.0257
     25  C17        5.1710    0.4930    0.5570 C.ar    1  UNL1       -0.0469
     26 H          -1.0071   -2.9511    0.4589 H       1  UNL1        0.0438
     27 H          -1.1729   -2.0904   -1.1064 H       1  UNL1        0.0438
     28 H          -4.6360    0.5249   -2.2241 H       1  UNL1        0.0639
     29 H          -6.7664    1.5664   -1.7507 H       1  UNL1        0.0618
     30 H          -7.6198    1.4305    0.5055 H       1  UNL1        0.0618
     31 H          -6.3844    0.2922    2.2516 H       1  UNL1        0.0626
     32 H          -2.3591   -1.9459    2.3244 H       1  UNL1        0.1701
     33 H           1.4887   -2.5005   -0.5615 H       1  UNL1        0.1728
     34 H           2.8445   -0.7477    1.0663 H       1  UNL1        0.1731
     35 H           4.9115    0.7466   -2.7366 H       1  UNL1        0.0626
     36 H           6.9496    1.9570   -2.4297 H       1  UNL1        0.0646
     37 H           6.7314    1.3064    1.6774 H       1  UNL1        0.0646
     38 H           4.6851    0.0930    1.3749 H       1  UNL1        0.0626
@<TRIPOS>BOND
     1     1     2    2
     2     2     3    1
     3     2    15   am
     4     3     4    1
     5     4     5   ar
     6     4    14   ar
     7     5     6   ar
     8     6     7   ar
     9     6    11   ar
    10     7     8   ar
    11     8     9   ar
    12     9    10   ar
    13    10    11   ar
    14    11    12   ar
    15    12    13    2
    16    12    14   ar
    17    15    16    1
    18    16    17   am
    19    17    18    2
    20    17    19    1
    21    19    20   ar
    22    19    25   ar
    23    20    21   ar
    24    21    22   ar
    25    22    23    1
    26    22    24   ar
    27    24    25   ar
    28     3    26    1
    29     3    27    1
    30     7    28    1
    31     8    29    1
    32     9    30    1
    33    10    31    1
    34    14    32    1
    35    15    33    1
    36    16    34    1
    37    20    35    1
    38    21    36    1
    39    24    37    1
    40    25    38    1
@<TRIPOS>MOLECULE
../data/bude_mols_rdkit_confs2/molecule_66.pdb
 38 40 0 0 0
SMALL
GASTEIGER

@<TRIPOS>ATOM
      1  O1        -0.1580   -0.0670   -0.1140 O.2     1  UNL1       -0.2738
      2  C1        -0.0370    0.5960    0.9700 C.2     1  UNL1        0.2364
      3  C2        -1.2440    1.2730    1.4780 C.3     1  UNL1        0.0835
      4  C3        -2.4180    1.0350    0.5940 C.ar    1  UNL1        0.1192
      5  N1        -3.1570   -0.0660    0.8830 N.ar    1  UNL1       -0.2332
      6  C4        -4.2360   -0.4000    0.1710 C.ar    1  UNL1        0.0782
      7  C5        -4.9580   -1.5260    0.4980 C.ar    1  UNL1       -0.0355
      8  C6        -6.0670   -1.8280   -0.2700 C.ar    1  UNL1       -0.0597
      9  C7        -6.4320   -1.0260   -1.3240 C.ar    1  UNL1       -0.0609
     10  C8        -5.6890    0.1170   -1.6470 C.ar    1  UNL1       -0.0474
     11  C9        -4.5880    0.4150   -0.8830 C.ar    1  UNL1        0.0647
     12  C10       -3.8340    1.5220   -1.1630 C.ar    1  UNL1        0.2592
     13  O2        -4.1440    2.2620   -2.1120 O.2     1  UNL1       -0.2672
     14  N2        -2.7360    1.8400   -0.4200 N.ar    1  UNL1       -0.3100
     15  N3         1.2280    0.6200    1.5760 N.am    1  UNL1       -0.2338
     16  N4         2.2890   -0.0710    0.9830 N.am    1  UNL1       -0.2304
     17  C11        3.4550    0.6370    0.6190 C.2     1  UNL1        0.2601
     18  O3         3.4510    1.8910    0.8680 O.2     1  UNL1       -0.2687
     19  C12        4.6190    0.0100   -0.0050 C.ar    1  UNL1        0.0383
     20  C13        5.7960    0.7020   -0.1830 C.ar    1  UNL1       -0.0469
     21  C14        6.8870    0.0900   -0.7790 C.ar    1  UNL1       -0.0257
     22  C15        6.7970   -1.2120   -1.1960 C.ar    1  UNL1        0.1234
     23  F1         7.8740   -1.8060   -1.7810 F       1  UNL1       -0.2055
     24  C16        5.6260   -1.9290   -1.0300 C.ar    1  UNL1       -0.0257
     25  C17        4.5340   -1.2930   -0.4250 C.ar    1  UNL1       -0.0469
     26 H          -1.0562    2.3251    1.5303 H       1  UNL1        0.0438
     27 H          -1.4680    0.8766    2.4463 H       1  UNL1        0.0438
     28 H          -4.6801   -2.1252    1.2910 H       1  UNL1        0.0639
     29 H          -6.6274   -2.6659   -0.0490 H       1  UNL1        0.0618
     30 H          -7.2637   -1.2685   -1.8847 H       1  UNL1        0.0618
     31 H          -5.9624    0.7195   -2.4390 H       1  UNL1        0.0626
     32 H          -2.1961    2.6373   -0.6254 H       1  UNL1        0.1701
     33 H           1.3676    1.1197    2.4127 H       1  UNL1        0.1728
     34 H           2.2238   -1.0399    0.8212 H       1  UNL1        0.1731
     35 H           5.8661    1.6830    0.1296 H       1  UNL1        0.0626
     36 H           7.7664    0.6143   -0.9086 H       1  UNL1        0.0646
     37 H           5.5582   -2.9096   -1.3444 H       1  UNL1        0.0646
     38 H           3.6522   -1.8128   -0.2934 H       1  UNL1        0.0626
@<TRIPOS>BOND
     1     1     2    2
     2     2     3    1
     3     2    15   am
     4     3     4    1
     5     4     5   ar
     6     4    14   ar
     7     5     6   ar
     8     6     7   ar
     9     6    11   ar
    10     7     8   ar
    11     8     9   ar
    12     9    10   ar
    13    10    11   ar
    14    11    12   ar
    15    12    13    2
    16    12    14   ar
    17    15    16    1
    18    16    17   am
    19    17    18    2
    20    17    19    1
    21    19    20   ar
    22    19    25   ar
    23    20    21   ar
    24    21    22   ar
    25    22    23    1
    26    22    24   ar
    27    24    25   ar
    28     3    26    1
    29     3    27    1
    30     7    28    1
    31     8    29    1
    32     9    30    1
    33    10    31    1
    34    14    32    1
    35    15    33    1
    36    16    34    1
    37    20    35    1
    38    21    36    1
    39    24    37    1
    40    25    38    1
@<TRIPOS>MOLECULE
../data/bude_mols_rdkit_confs2/molecule_66.pdb
 38 40 0 0 0
SMALL
GASTEIGER

@<TRIPOS>ATOM
      1  O1        -0.2770    1.2430   -1.4550 O.2     1  UNL1       -0.2738
      2  C1        -0.0220    1.3890   -0.2100 C.2     1  UNL1        0.2364
      3  C2         1.1470    2.2080    0.1910 C.3     1  UNL1        0.0835
      4  C3         2.3710    1.3910   -0.0700 C.ar    1  UNL1        0.1192
      5  N1         3.1830    1.0340    0.9760 N.ar    1  UNL1       -0.2332
      6  C4         4.2580    0.2650    0.7690 C.ar    1  UNL1        0.0782
      7  C5         5.0940   -0.1240    1.8180 C.ar    1  UNL1       -0.0355
      8  C6         6.1910   -0.9190    1.6230 C.ar    1  UNL1       -0.0597
      9  C7         6.4570   -1.3390    0.3260 C.ar    1  UNL1       -0.0609
     10  C8         5.6590   -0.9790   -0.7250 C.ar    1  UNL1       -0.0474
     11  C9         4.5490   -0.1670   -0.4840 C.ar    1  UNL1        0.0647
     12  C10        3.6960    0.2200   -1.5400 C.ar    1  UNL1        0.2592
     13  O2         3.9520   -0.1650   -2.6970 O.2     1  UNL1       -0.2672
     14  N2         2.6290    0.9860   -1.3150 N.ar    1  UNL1       -0.3100
     15  N3        -0.8530    0.7680    0.7270 N.am    1  UNL1       -0.2338
     16  N4        -1.9660    0.0110    0.2630 N.am    1  UNL1       -0.2304
     17  C11       -3.2730    0.3470    0.6740 C.2     1  UNL1        0.2601
     18  O3        -3.3260    1.3700    1.4750 O.2     1  UNL1       -0.2687
     19  C12       -4.5080   -0.3130    0.2960 C.ar    1  UNL1        0.0383
     20  C13       -5.7050    0.4210    0.4950 C.ar    1  UNL1       -0.0469
     21  C14       -6.9310   -0.0930    0.1910 C.ar    1  UNL1       -0.0257
     22  C15       -7.0350   -1.3510   -0.3190 C.ar    1  UNL1        0.1234
     23  F1        -8.2490   -1.8800   -0.6260 F       1  UNL1       -0.2055
     24  C16       -5.8780   -2.0980   -0.5240 C.ar    1  UNL1       -0.0257
     25  C17       -4.6130   -1.5860   -0.2190 C.ar    1  UNL1       -0.0469
     26 H           1.0841    2.4518    1.2310 H       1  UNL1        0.0438
     27 H           1.1767    3.1233   -0.3625 H       1  UNL1        0.0438
     28 H           4.8770    0.1993    2.7737 H       1  UNL1        0.0639
     29 H           6.7979   -1.1961    2.4103 H       1  UNL1        0.0618
     30 H           7.2785   -1.9386    0.1507 H       1  UNL1        0.0618
     31 H           5.8740   -1.3025   -1.6811 H       1  UNL1        0.0626
     32 H           2.0388    1.2496   -2.0576 H       1  UNL1        0.1701
     33 H          -0.6718    0.8526    1.6910 H       1  UNL1        0.1728
     34 H          -1.8231   -0.7490   -0.3463 H       1  UNL1        0.1731
     35 H          -5.6463    1.3756    0.8827 H       1  UNL1        0.0626
     36 H          -7.7804    0.4719    0.3476 H       1  UNL1        0.0646
     37 H          -5.9559   -3.0519   -0.9101 H       1  UNL1        0.0646
     38 H          -3.7674   -2.1558   -0.3781 H       1  UNL1        0.0626
@<TRIPOS>BOND
     1     1     2    2
     2     2     3    1
     3     2    15   am
     4     3     4    1
     5     4     5   ar
     6     4    14   ar
     7     5     6   ar
     8     6     7   ar
     9     6    11   ar
    10     7     8   ar
    11     8     9   ar
    12     9    10   ar
    13    10    11   ar
    14    11    12   ar
    15    12    13    2
    16    12    14   ar
    17    15    16    1
    18    16    17   am
    19    17    18    2
    20    17    19    1
    21    19    20   ar
    22    19    25   ar
    23    20    21   ar
    24    21    22   ar
    25    22    23    1
    26    22    24   ar
    27    24    25   ar
    28     3    26    1
    29     3    27    1
    30     7    28    1
    31     8    29    1
    32     9    30    1
    33    10    31    1
    34    14    32    1
    35    15    33    1
    36    16    34    1
    37    20    35    1
    38    21    36    1
    39    24    37    1
    40    25    38    1
@<TRIPOS>MOLECULE
../data/bude_mols_rdkit_confs2/molecule_66.pdb
 38 40 0 0 0
SMALL
GASTEIGER

@<TRIPOS>ATOM
      1  O1         0.1800    0.0410   -0.0100 O.2     1  UNL1       -0.2738
      2  C1         0.0820   -0.1560   -1.2540 C.2     1  UNL1        0.2364
      3  C2        -1.1800   -0.3800   -1.9710 C.3     1  UNL1        0.0835
      4  C3        -2.3660   -0.3410   -1.0720 C.ar    1  UNL1        0.1192
      5  N1        -2.9720    0.8030   -0.7100 N.ar    1  UNL1       -0.2332
      6  C4        -4.0480    0.8640    0.0950 C.ar    1  UNL1        0.0782
      7  C5        -4.6500    2.0500    0.4520 C.ar    1  UNL1       -0.0355
      8  C6        -5.7640    2.1240    1.2860 C.ar    1  UNL1       -0.0597
      9  C7        -6.2830    0.9480    1.7730 C.ar    1  UNL1       -0.0609
     10  C8        -5.6960   -0.2710    1.4300 C.ar    1  UNL1       -0.0474
     11  C9        -4.5920   -0.3120    0.6020 C.ar    1  UNL1        0.0647
     12  C10       -3.9770   -1.4870    0.2360 C.ar    1  UNL1        0.2592
     13  O2        -4.4660   -2.5750    0.6950 O.2     1  UNL1       -0.2672
     14  N2        -2.9030   -1.4910   -0.5720 N.ar    1  UNL1       -0.3100
     15  N3         1.2940   -0.1580   -2.0220 N.am    1  UNL1       -0.2338
     16  N4         2.5350    0.0610   -1.4030 N.am    1  UNL1       -0.2304
     17  C11        3.0420   -0.7270   -0.3450 C.2     1  UNL1        0.2601
     18  O3         2.3380   -1.6900    0.0660 O.2     1  UNL1       -0.2687
     19  C12        4.3410   -0.4090    0.2320 C.ar    1  UNL1        0.0383
     20  C13        5.2210    0.3570   -0.4680 C.ar    1  UNL1       -0.0469
     21  C14        6.4500    0.6720    0.1100 C.ar    1  UNL1       -0.0257
     22  C15        6.7900    0.2320    1.3540 C.ar    1  UNL1        0.1234
     23  F1         7.9680    0.5170    1.9500 F       1  UNL1       -0.2055
     24  C16        5.8870   -0.5560    2.0730 C.ar    1  UNL1       -0.0257
     25  C17        4.6740   -0.8660    1.5020 C.ar    1  UNL1       -0.0469
     26 H          -1.1398   -1.3393   -2.4433 H       1  UNL1        0.0438
     27 H          -1.2901    0.4086   -2.6858 H       1  UNL1        0.0438
     28 H          -4.2558    2.9294    0.0828 H       1  UNL1        0.0639
     29 H          -6.1862    3.0334    1.5304 H       1  UNL1        0.0618
     30 H          -7.1078    0.9664    2.3931 H       1  UNL1        0.0618
     31 H          -6.0910   -1.1501    1.7989 H       1  UNL1        0.0626
     32 H          -2.4902   -2.3523   -0.8109 H       1  UNL1        0.1701
     33 H           1.2550   -0.3146   -2.9932 H       1  UNL1        0.1728
     34 H           3.0863    0.8100   -1.7260 H       1  UNL1        0.1731
     35 H           4.9825    0.6994   -1.4119 H       1  UNL1        0.0626
     36 H           7.1195    1.2534   -0.4179 H       1  UNL1        0.0646
     37 H           6.1259   -0.8996    3.0163 H       1  UNL1        0.0646
     38 H           4.0005   -1.4472    2.0251 H       1  UNL1        0.0626
@<TRIPOS>BOND
     1     1     2    2
     2     2     3    1
     3     2    15   am
     4     3     4    1
     5     4     5   ar
     6     4    14   ar
     7     5     6   ar
     8     6     7   ar
     9     6    11   ar
    10     7     8   ar
    11     8     9   ar
    12     9    10   ar
    13    10    11   ar
    14    11    12   ar
    15    12    13    2
    16    12    14   ar
    17    15    16    1
    18    16    17   am
    19    17    18    2
    20    17    19    1
    21    19    20   ar
    22    19    25   ar
    23    20    21   ar
    24    21    22   ar
    25    22    23    1
    26    22    24   ar
    27    24    25   ar
    28     3    26    1
    29     3    27    1
    30     7    28    1
    31     8    29    1
    32     9    30    1
    33    10    31    1
    34    14    32    1
    35    15    33    1
    36    16    34    1
    37    20    35    1
    38    21    36    1
    39    24    37    1
    40    25    38    1
@<TRIPOS>MOLECULE
../data/bude_mols_rdkit_confs2/molecule_66.pdb
 38 40 0 0 0
SMALL
GASTEIGER

@<TRIPOS>ATOM
      1  O1         0.3990    2.2950    0.4680 O.2     1  UNL1       -0.2738
      2  C1        -0.0020    1.2880    1.1730 C.2     1  UNL1        0.2364
      3  C2        -1.3430    1.3430    1.7770 C.3     1  UNL1        0.0835
      4  C3        -2.4100    1.0040    0.7910 C.ar    1  UNL1        0.1192
      5  N1        -3.4130    0.1870    1.1440 N.ar    1  UNL1       -0.2332
      6  C4        -4.3660   -0.2210    0.3120 C.ar    1  UNL1        0.0782
      7  C5        -5.3730   -1.0590    0.7350 C.ar    1  UNL1       -0.0355
      8  C6        -6.3410   -1.4570   -0.1730 C.ar    1  UNL1       -0.0597
      9  C7        -6.3170   -1.0300   -1.4950 C.ar    1  UNL1       -0.0609
     10  C8        -5.3060   -0.1890   -1.9140 C.ar    1  UNL1       -0.0474
     11  C9        -4.3350    0.2190   -1.0200 C.ar    1  UNL1        0.0647
     12  C10       -3.3140    1.0530   -1.3860 C.ar    1  UNL1        0.2592
     13  O2        -3.2530    1.4800   -2.5880 O.2     1  UNL1       -0.2672
     14  N2        -2.3690    1.4310   -0.4750 N.ar    1  UNL1       -0.3100
     15  N3         0.8860    0.1620    1.3330 N.am    1  UNL1       -0.2338
     16  N4         2.1330    0.2250    0.7310 N.am    1  UNL1       -0.2304
     17  C11        3.1140   -0.8010    0.7690 C.2     1  UNL1        0.2601
     18  O3         2.8050   -1.8690    1.3940 O.2     1  UNL1       -0.2687
     19  C12        4.4140   -0.6470    0.1330 C.ar    1  UNL1        0.0383
     20  C13        4.6020   -0.7470   -1.2090 C.ar    1  UNL1       -0.0469
     21  C14        5.8690   -0.5820   -1.7970 C.ar    1  UNL1       -0.0257
     22  C15        6.9530   -0.3110   -1.0020 C.ar    1  UNL1        0.1234
     23  F1         8.2070   -0.1350   -1.5490 F       1  UNL1       -0.2055
     24  C16        6.7810   -0.2040    0.3680 C.ar    1  UNL1       -0.0257
     25  C17        5.5120   -0.3760    0.9200 C.ar    1  UNL1       -0.0469
     26 H          -1.5155    2.3319    2.1475 H       1  UNL1        0.0438
     27 H          -1.3808    0.6234    2.5680 H       1  UNL1        0.0438
     28 H          -5.4064   -1.3857    1.7133 H       1  UNL1        0.0639
     29 H          -7.0975   -2.0853    0.1399 H       1  UNL1        0.0618
     30 H          -7.0469   -1.3382   -2.1562 H       1  UNL1        0.0618
     31 H          -5.2755    0.1345   -2.8935 H       1  UNL1        0.0626
     32 H          -1.6415    2.0313   -0.7571 H       1  UNL1        0.1701
     33 H           0.6142   -0.6277    1.8543 H       1  UNL1        0.1728
     34 H           2.3565    1.0470    0.2375 H       1  UNL1        0.1731
     35 H           3.7914   -0.9500   -1.8146 H       1  UNL1        0.0626
     36 H           5.9821   -0.6643   -2.8195 H       1  UNL1        0.0646
     37 H           7.5880    0.0020    0.9774 H       1  UNL1        0.0646
     38 H           5.3925   -0.2985    1.9421 H       1  UNL1        0.0626
@<TRIPOS>BOND
     1     1     2    2
     2     2     3    1
     3     2    15   am
     4     3     4    1
     5     4     5   ar
     6     4    14   ar
     7     5     6   ar
     8     6     7   ar
     9     6    11   ar
    10     7     8   ar
    11     8     9   ar
    12     9    10   ar
    13    10    11   ar
    14    11    12   ar
    15    12    13    2
    16    12    14   ar
    17    15    16    1
    18    16    17   am
    19    17    18    2
    20    17    19    1
    21    19    20   ar
    22    19    25   ar
    23    20    21   ar
    24    21    22   ar
    25    22    23    1
    26    22    24   ar
    27    24    25   ar
    28     3    26    1
    29     3    27    1
    30     7    28    1
    31     8    29    1
    32     9    30    1
    33    10    31    1
    34    14    32    1
    35    15    33    1
    36    16    34    1
    37    20    35    1
    38    21    36    1
    39    24    37    1
    40    25    38    1
@<TRIPOS>MOLECULE
../data/bude_mols_rdkit_confs2/molecule_66.pdb
 38 40 0 0 0
SMALL
GASTEIGER

@<TRIPOS>ATOM
      1  O1         0.0730   -0.2520   -0.0770 O.2     1  UNL1       -0.2738
      2  C1         0.0220   -0.5880    1.1310 C.2     1  UNL1        0.2364
      3  C2        -1.2570   -0.6540    1.9040 C.3     1  UNL1        0.0835
      4  C3        -2.4260   -0.2900    1.1080 C.ar    1  UNL1        0.1192
      5  N1        -3.1670   -1.1530    0.3830 N.ar    1  UNL1       -0.2332
      6  C4        -4.2320   -0.7750   -0.3320 C.ar    1  UNL1        0.0782
      7  C5        -4.9930   -1.6570   -1.0770 C.ar    1  UNL1       -0.0355
      8  C6        -6.0930   -1.2100   -1.8040 C.ar    1  UNL1       -0.0597
      9  C7        -6.4500    0.1140   -1.8020 C.ar    1  UNL1       -0.0609
     10  C8        -5.6990    0.9950   -1.0650 C.ar    1  UNL1       -0.0474
     11  C9        -4.6090    0.5490   -0.3440 C.ar    1  UNL1        0.0647
     12  C10       -3.8750    1.4340    0.3810 C.ar    1  UNL1        0.2592
     13  O2        -4.2210    2.6590    0.3710 O.2     1  UNL1       -0.2672
     14  N2        -2.8150    0.9980    1.0800 N.ar    1  UNL1       -0.3100
     15  N3         1.2320   -0.9150    1.7740 N.am    1  UNL1       -0.2338
     16  N4         2.4850   -0.8910    1.1580 N.am    1  UNL1       -0.2304
     17  C11        3.1620    0.2840    0.7690 C.2     1  UNL1        0.2601
     18  O3         2.5660    1.3740    1.0070 O.2     1  UNL1       -0.2687
     19  C12        4.4690    0.3210    0.1250 C.ar    1  UNL1        0.0383
     20  C13        5.0390    1.5390   -0.2220 C.ar    1  UNL1       -0.0469
     21  C14        6.2580    1.6580   -0.8260 C.ar    1  UNL1       -0.0257
     22  C15        6.9990    0.5220   -1.1260 C.ar    1  UNL1        0.1234
     23  F1         8.2040    0.6460   -1.7230 F       1  UNL1       -0.2055
     24  C16        6.4350   -0.6870   -0.7820 C.ar    1  UNL1       -0.0257
     25  C17        5.2030   -0.8020   -0.1720 C.ar    1  UNL1       -0.0469
     26 H          -1.1881    0.0170    2.7346 H       1  UNL1        0.0438
     27 H          -1.3881   -1.6683    2.2186 H       1  UNL1        0.0438
     28 H          -4.7427   -2.6580   -1.0943 H       1  UNL1        0.0639
     29 H          -6.6481   -1.8852   -2.3526 H       1  UNL1        0.0618
     30 H          -7.2658    0.4408   -2.3430 H       1  UNL1        0.0618
     31 H          -5.9501    1.9959   -1.0495 H       1  UNL1        0.0626
     32 H          -2.2956    1.6541    1.5987 H       1  UNL1        0.1701
     33 H           1.1915   -1.1783    2.7218 H       1  UNL1        0.1728
     34 H           2.9263   -1.7535    0.9831 H       1  UNL1        0.1731
     35 H           4.5125    2.4014   -0.0119 H       1  UNL1        0.0626
     36 H           6.6288    2.5923   -1.0597 H       1  UNL1        0.0646
     37 H           6.9607   -1.5501   -0.9912 H       1  UNL1        0.0646
     38 H           4.8310   -1.7357    0.0623 H       1  UNL1        0.0626
@<TRIPOS>BOND
     1     1     2    2
     2     2     3    1
     3     2    15   am
     4     3     4    1
     5     4     5   ar
     6     4    14   ar
     7     5     6   ar
     8     6     7   ar
     9     6    11   ar
    10     7     8   ar
    11     8     9   ar
    12     9    10   ar
    13    10    11   ar
    14    11    12   ar
    15    12    13    2
    16    12    14   ar
    17    15    16    1
    18    16    17   am
    19    17    18    2
    20    17    19    1
    21    19    20   ar
    22    19    25   ar
    23    20    21   ar
    24    21    22   ar
    25    22    23    1
    26    22    24   ar
    27    24    25   ar
    28     3    26    1
    29     3    27    1
    30     7    28    1
    31     8    29    1
    32     9    30    1
    33    10    31    1
    34    14    32    1
    35    15    33    1
    36    16    34    1
    37    20    35    1
    38    21    36    1
    39    24    37    1
    40    25    38    1
@<TRIPOS>MOLECULE
../data/bude_mols_rdkit_confs2/molecule_66.pdb
 38 40 0 0 0
SMALL
GASTEIGER

@<TRIPOS>ATOM
      1  O1         0.1630    0.2390    0.1410 O.2     1  UNL1       -0.2738
      2  C1         0.0020    0.1860   -1.1200 C.2     1  UNL1        0.2364
      3  C2         1.2170    0.2050   -1.9630 C.3     1  UNL1        0.0835
      4  C3         2.4570    0.4120   -1.1800 C.ar    1  UNL1        0.1192
      5  N1         3.1980   -0.5860   -0.7050 N.ar    1  UNL1       -0.2332
      6  C4         4.3430   -0.3490    0.0010 C.ar    1  UNL1        0.0782
      7  C5         5.1000   -1.3800    0.4770 C.ar    1  UNL1       -0.0355
      8  C6         6.2780   -1.1670    1.1950 C.ar    1  UNL1       -0.0597
      9  C7         6.6680    0.1300    1.4170 C.ar    1  UNL1       -0.0609
     10  C8         5.9030    1.1910    0.9360 C.ar    1  UNL1       -0.0474
     11  C9         4.7480    0.9480    0.2310 C.ar    1  UNL1        0.0647
     12  C10        3.9660    1.9650   -0.2670 C.ar    1  UNL1        0.2592
     13  O2         4.3020    3.1670   -0.0760 O.2     1  UNL1       -0.2672
     14  N2         2.8440    1.6860   -0.9590 N.ar    1  UNL1       -0.3100
     15  N3        -1.3140    0.1220   -1.6300 N.am    1  UNL1       -0.2338
     16  N4        -2.4540    0.1200   -0.8530 N.am    1  UNL1       -0.2304
     17  C11       -3.5410   -0.7840   -1.1190 C.2     1  UNL1        0.2601
     18  O3        -3.4560   -1.5860   -2.0570 O.2     1  UNL1       -0.2687
     19  C12       -4.7180   -0.7290   -0.2740 C.ar    1  UNL1        0.0383
     20  C13       -5.5110   -1.8050    0.0400 C.ar    1  UNL1       -0.0469
     21  C14       -6.6120   -1.6740    0.8570 C.ar    1  UNL1       -0.0257
     22  C15       -6.9880   -0.4420    1.4140 C.ar    1  UNL1        0.1234
     23  F1        -8.0770   -0.3200    2.2200 F       1  UNL1       -0.2055
     24  C16       -6.1830    0.6240    1.0870 C.ar    1  UNL1       -0.0257
     25  C17       -5.0870    0.5030    0.2770 C.ar    1  UNL1       -0.0469
     26 H           1.1263    0.9983   -2.6753 H       1  UNL1        0.0438
     27 H           1.2930   -0.7501   -2.4393 H       1  UNL1        0.0438
     28 H           4.7914   -2.3488    0.3003 H       1  UNL1        0.0639
     29 H           6.8376   -1.9592    1.5475 H       1  UNL1        0.0618
     30 H           7.5344    0.3211    1.9442 H       1  UNL1        0.0618
     31 H           6.2046    2.1625    1.1097 H       1  UNL1        0.0626
     32 H           2.2964    2.4251   -1.3099 H       1  UNL1        0.1701
     33 H          -1.4252    0.0756   -2.6071 H       1  UNL1        0.1728
     34 H          -2.5251    0.7507   -0.1004 H       1  UNL1        0.1731
     35 H          -5.2766   -2.7333   -0.3451 H       1  UNL1        0.0626
     36 H          -7.1796   -2.5100    1.0667 H       1  UNL1        0.0646
     37 H          -6.4154    1.5543    1.4686 H       1  UNL1        0.0646
     38 H          -4.5197    1.3393    0.0677 H       1  UNL1        0.0626
@<TRIPOS>BOND
     1     1     2    2
     2     2     3    1
     3     2    15   am
     4     3     4    1
     5     4     5   ar
     6     4    14   ar
     7     5     6   ar
     8     6     7   ar
     9     6    11   ar
    10     7     8   ar
    11     8     9   ar
    12     9    10   ar
    13    10    11   ar
    14    11    12   ar
    15    12    13    2
    16    12    14   ar
    17    15    16    1
    18    16    17   am
    19    17    18    2
    20    17    19    1
    21    19    20   ar
    22    19    25   ar
    23    20    21   ar
    24    21    22   ar
    25    22    23    1
    26    22    24   ar
    27    24    25   ar
    28     3    26    1
    29     3    27    1
    30     7    28    1
    31     8    29    1
    32     9    30    1
    33    10    31    1
    34    14    32    1
    35    15    33    1
    36    16    34    1
    37    20    35    1
    38    21    36    1
    39    24    37    1
    40    25    38    1
@<TRIPOS>MOLECULE
../data/bude_mols_rdkit_confs2/molecule_66.pdb
 38 40 0 0 0
SMALL
GASTEIGER

@<TRIPOS>ATOM
      1  O1         0.2090    1.0560   -0.7810 O.2     1  UNL1       -0.2738
      2  C1         0.0550   -0.1530   -0.5030 C.2     1  UNL1        0.2364
      3  C2        -1.1580   -0.9130   -0.7780 C.3     1  UNL1        0.0835
      4  C3        -2.4030   -0.3230   -0.2970 C.ar    1  UNL1        0.1192
      5  N1        -3.5830   -0.7720   -0.8270 N.ar    1  UNL1       -0.2332
      6  C4        -4.7770   -0.3100   -0.4570 C.ar    1  UNL1        0.0782
      7  C5        -5.9670   -0.7920   -1.0060 C.ar    1  UNL1       -0.0355
      8  C6        -7.1760   -0.2920   -0.5800 C.ar    1  UNL1       -0.0597
      9  C7        -7.2570    0.6760    0.3720 C.ar    1  UNL1       -0.0609
     10  C8        -6.0830    1.1580    0.9180 C.ar    1  UNL1       -0.0474
     11  C9        -4.8380    0.6720    0.5100 C.ar    1  UNL1        0.0647
     12  C10       -3.6450    1.1260    1.0440 C.ar    1  UNL1        0.2592
     13  O2        -3.7140    2.0130    1.9190 O.2     1  UNL1       -0.2672
     14  N2        -2.4630    0.6240    0.6320 N.ar    1  UNL1       -0.3100
     15  N3         1.1360   -0.8360    0.1260 N.am    1  UNL1       -0.2338
     16  N4         2.3500   -0.2120    0.4160 N.am    1  UNL1       -0.2304
     17  C11        3.5850   -0.7860   -0.0060 C.2     1  UNL1        0.2601
     18  O3         3.4520   -1.8930   -0.6590 O.2     1  UNL1       -0.2687
     19  C12        4.9160   -0.2910    0.2140 C.ar    1  UNL1        0.0383
     20  C13        5.1340    0.9810    0.7150 C.ar    1  UNL1       -0.0469
     21  C14        6.4440    1.3990    0.9050 C.ar    1  UNL1       -0.0257
     22  C15        7.5140    0.5660    0.6000 C.ar    1  UNL1        0.1234
     23  F1         8.7910    0.9590    0.7860 F       1  UNL1       -0.2055
     24  C16        7.2970   -0.6990    0.1020 C.ar    1  UNL1       -0.0257
     25  C17        6.0110   -1.1010   -0.0810 C.ar    1  UNL1       -0.0469
     26 H          -1.0529   -1.8747   -0.3208 H       1  UNL1        0.0438
     27 H          -1.2450   -0.9434   -1.8440 H       1  UNL1        0.0438
     28 H          -5.9396   -1.5245   -1.7325 H       1  UNL1        0.0639
     29 H          -8.0458   -0.6618   -0.9945 H       1  UNL1        0.0618
     30 H          -8.1722    1.0412    0.6787 H       1  UNL1        0.0618
     31 H          -6.1264    1.8921    1.6421 H       1  UNL1        0.0626
     32 H          -1.6288    0.9661    1.0275 H       1  UNL1        0.1701
     33 H           1.0220   -1.7842    0.3651 H       1  UNL1        0.1728
     34 H           2.3538    0.6348    0.9181 H       1  UNL1        0.1731
     35 H           4.3423    1.6030    0.9416 H       1  UNL1        0.0626
     36 H           6.6264    2.3435    1.2787 H       1  UNL1        0.0646
     37 H           8.0866   -1.3233   -0.1256 H       1  UNL1        0.0646
     38 H           5.8383   -2.0473   -0.4547 H       1  UNL1        0.0626
@<TRIPOS>BOND
     1     1     2    2
     2     2     3    1
     3     2    15   am
     4     3     4    1
     5     4     5   ar
     6     4    14   ar
     7     5     6   ar
     8     6     7   ar
     9     6    11   ar
    10     7     8   ar
    11     8     9   ar
    12     9    10   ar
    13    10    11   ar
    14    11    12   ar
    15    12    13    2
    16    12    14   ar
    17    15    16    1
    18    16    17   am
    19    17    18    2
    20    17    19    1
    21    19    20   ar
    22    19    25   ar
    23    20    21   ar
    24    21    22   ar
    25    22    23    1
    26    22    24   ar
    27    24    25   ar
    28     3    26    1
    29     3    27    1
    30     7    28    1
    31     8    29    1
    32     9    30    1
    33    10    31    1
    34    14    32    1
    35    15    33    1
    36    16    34    1
    37    20    35    1
    38    21    36    1
    39    24    37    1
    40    25    38    1
@<TRIPOS>MOLECULE
../data/bude_mols_rdkit_confs2/molecule_66.pdb
 38 40 0 0 0
SMALL
GASTEIGER

@<TRIPOS>ATOM
      1  O1         0.0910   -0.3650    0.3070 O.2     1  UNL1       -0.2738
      2  C1         0.1160   -1.6170    0.1640 C.2     1  UNL1        0.2364
      3  C2        -1.1260   -2.3750   -0.1350 C.3     1  UNL1        0.0835
      4  C3        -2.2480   -1.4070   -0.2240 C.ar    1  UNL1        0.1192
      5  N1        -2.8930   -1.0890    0.9100 N.ar    1  UNL1       -0.2332
      6  C4        -3.9230   -0.2130    0.8770 C.ar    1  UNL1        0.0782
      7  C5        -4.6110    0.1370    2.0350 C.ar    1  UNL1       -0.0355
      8  C6        -5.6500    1.0320    1.9480 C.ar    1  UNL1       -0.0597
      9  C7        -6.0070    1.5770    0.7300 C.ar    1  UNL1       -0.0609
     10  C8        -5.3280    1.2340   -0.4230 C.ar    1  UNL1       -0.0474
     11  C9        -4.2900    0.3390   -0.3320 C.ar    1  UNL1        0.0647
     12  C10       -3.6220    0.0060   -1.4900 C.ar    1  UNL1        0.2592
     13  O2        -3.9110    0.4760   -2.6210 O.2     1  UNL1       -0.2672
     14  N2        -2.6020   -0.8680   -1.4240 N.ar    1  UNL1       -0.3100
     15  N3         1.3800   -2.2400    0.3030 N.am    1  UNL1       -0.2338
     16  N4         2.5260   -1.4970    0.5840 N.am    1  UNL1       -0.2304
     17  C11        2.9290   -0.4190   -0.2550 C.2     1  UNL1        0.2601
     18  O3         2.1870   -0.1810   -1.2620 O.2     1  UNL1       -0.2687
     19  C12        4.1110    0.4000   -0.0270 C.ar    1  UNL1        0.0383
     20  C13        5.0060    0.0730    0.9680 C.ar    1  UNL1       -0.0469
     21  C14        6.1100    0.8950    1.1340 C.ar    1  UNL1       -0.0257
     22  C15        6.3550    2.0030    0.3700 C.ar    1  UNL1        0.1234
     23  F1         7.4540    2.7600    0.5880 F       1  UNL1       -0.2055
     24  C16        5.4230    2.2920   -0.6220 C.ar    1  UNL1       -0.0257
     25  C17        4.3120    1.5050   -0.8240 C.ar    1  UNL1       -0.0469
     26 H          -1.3171   -3.0806    0.6464 H       1  UNL1        0.0438
     27 H          -1.0220   -2.9072   -1.0574 H       1  UNL1        0.0438
     28 H          -4.3448   -0.2696    2.9454 H       1  UNL1        0.0639
     29 H          -6.1679    1.2992    2.7997 H       1  UNL1        0.0618
     30 H          -6.7897    2.2479    0.6809 H       1  UNL1        0.0618
     31 H          -5.5948    1.6413   -1.3329 H       1  UNL1        0.0626
     32 H          -2.1124   -1.1177   -2.2408 H       1  UNL1        0.1701
     33 H           1.4510   -3.2164    0.1993 H       1  UNL1        0.1728
     34 H           3.0659   -1.7215    1.3761 H       1  UNL1        0.1731
     35 H           4.8599   -0.7538    1.5680 H       1  UNL1        0.0626
     36 H           6.7859    0.6573    1.8767 H       1  UNL1        0.0646
     37 H           5.5687    3.1186   -1.2224 H       1  UNL1        0.0646
     38 H           3.6352    1.7410   -1.5665 H       1  UNL1        0.0626
@<TRIPOS>BOND
     1     1     2    2
     2     2     3    1
     3     2    15   am
     4     3     4    1
     5     4     5   ar
     6     4    14   ar
     7     5     6   ar
     8     6     7   ar
     9     6    11   ar
    10     7     8   ar
    11     8     9   ar
    12     9    10   ar
    13    10    11   ar
    14    11    12   ar
    15    12    13    2
    16    12    14   ar
    17    15    16    1
    18    16    17   am
    19    17    18    2
    20    17    19    1
    21    19    20   ar
    22    19    25   ar
    23    20    21   ar
    24    21    22   ar
    25    22    23    1
    26    22    24   ar
    27    24    25   ar
    28     3    26    1
    29     3    27    1
    30     7    28    1
    31     8    29    1
    32     9    30    1
    33    10    31    1
    34    14    32    1
    35    15    33    1
    36    16    34    1
    37    20    35    1
    38    21    36    1
    39    24    37    1
    40    25    38    1
@<TRIPOS>MOLECULE
../data/bude_mols_rdkit_confs2/molecule_66.pdb
 38 40 0 0 0
SMALL
GASTEIGER

@<TRIPOS>ATOM
      1  O1        -0.2920   -0.5300   -0.7700 O.2     1  UNL1       -0.2738
      2  C1        -0.1880    0.7080   -0.7090 C.2     1  UNL1        0.2364
      3  C2        -1.3830    1.5500   -1.0900 C.3     1  UNL1        0.0835
      4  C3        -2.5400    0.8970   -0.4360 C.ar    1  UNL1        0.1192
      5  N1        -3.1340   -0.1480   -1.0220 N.ar    1  UNL1       -0.2332
      6  C4        -4.2020   -0.7330   -0.4020 C.ar    1  UNL1        0.0782
      7  C5        -4.8340   -1.8070   -0.9780 C.ar    1  UNL1       -0.0355
      8  C6        -5.9020   -2.3720   -0.3370 C.ar    1  UNL1       -0.0597
      9  C7        -6.3420   -1.8700    0.8800 C.ar    1  UNL1       -0.0609
     10  C8        -5.7160   -0.7840    1.4830 C.ar    1  UNL1       -0.0474
     11  C9        -4.6460   -0.2360    0.8150 C.ar    1  UNL1        0.0647
     12  C10       -3.9790    0.8500    1.3590 C.ar    1  UNL1        0.2592
     13  O2        -4.4120    1.2800    2.4750 O.2     1  UNL1       -0.2672
     14  N2        -2.9330    1.4160    0.7400 N.ar    1  UNL1       -0.3100
     15  N3         0.9970    1.3380   -0.2920 N.am    1  UNL1       -0.2338
     16  N4         2.1260    0.6310    0.0730 N.am    1  UNL1       -0.2304
     17  C11        3.3530    0.9660   -0.5400 C.2     1  UNL1        0.2601
     18  O3         3.3650    1.9140   -1.4070 O.2     1  UNL1       -0.2687
     19  C12        4.6010    0.2920   -0.2410 C.ar    1  UNL1        0.0383
     20  C13        5.7450    1.0770   -0.2620 C.ar    1  UNL1       -0.0469
     21  C14        6.9880    0.5650    0.0090 C.ar    1  UNL1       -0.0257
     22  C15        7.0830   -0.7800    0.3120 C.ar    1  UNL1        0.1234
     23  F1         8.3180   -1.2690    0.5760 F       1  UNL1       -0.2055
     24  C16        5.9570   -1.5830    0.3400 C.ar    1  UNL1       -0.0257
     25  C17        4.7030   -1.0560    0.0630 C.ar    1  UNL1       -0.0469
     26 H          -1.5101    1.5628   -2.1524 H       1  UNL1        0.0438
     27 H          -1.2704    2.5683   -0.7813 H       1  UNL1        0.0438
     28 H          -4.5078   -2.1828   -1.8821 H       1  UNL1        0.0639
     29 H          -6.3851   -3.1789   -0.7620 H       1  UNL1        0.0618
     30 H          -7.1497   -2.3113    1.3468 H       1  UNL1        0.0618
     31 H          -6.0389   -0.4076    2.3880 H       1  UNL1        0.0626
     32 H          -2.4670    2.1882    1.1348 H       1  UNL1        0.1701
     33 H           1.0234    2.3216   -0.2587 H       1  UNL1        0.1728
     34 H           2.0764   -0.0882    0.7435 H       1  UNL1        0.1731
     35 H           5.6575    2.0799   -0.4892 H       1  UNL1        0.0626
     36 H           7.8268    1.1657   -0.0127 H       1  UNL1        0.0646
     37 H           6.0502   -2.5849    0.5693 H       1  UNL1        0.0646
     38 H           3.8636   -1.6561    0.0831 H       1  UNL1        0.0626
@<TRIPOS>BOND
     1     1     2    2
     2     2     3    1
     3     2    15   am
     4     3     4    1
     5     4     5   ar
     6     4    14   ar
     7     5     6   ar
     8     6     7   ar
     9     6    11   ar
    10     7     8   ar
    11     8     9   ar
    12     9    10   ar
    13    10    11   ar
    14    11    12   ar
    15    12    13    2
    16    12    14   ar
    17    15    16    1
    18    16    17   am
    19    17    18    2
    20    17    19    1
    21    19    20   ar
    22    19    25   ar
    23    20    21   ar
    24    21    22   ar
    25    22    23    1
    26    22    24   ar
    27    24    25   ar
    28     3    26    1
    29     3    27    1
    30     7    28    1
    31     8    29    1
    32     9    30    1
    33    10    31    1
    34    14    32    1
    35    15    33    1
    36    16    34    1
    37    20    35    1
    38    21    36    1
    39    24    37    1
    40    25    38    1
@<TRIPOS>MOLECULE
../data/bude_mols_rdkit_confs2/molecule_66.pdb
 38 40 0 0 0
SMALL
GASTEIGER

@<TRIPOS>ATOM
      1  O1        -0.1520    0.2950    1.0890 O.2     1  UNL1       -0.2738
      2  C1        -0.0500    0.5110   -0.1340 C.2     1  UNL1        0.2364
      3  C2        -1.1300    1.0730   -0.9770 C.3     1  UNL1        0.0835
      4  C3        -2.4830    0.5910   -0.6790 C.ar    1  UNL1        0.1192
      5  N1        -3.2550    1.1820    0.2280 N.ar    1  UNL1       -0.2332
      6  C4        -4.5090    0.7880    0.4870 C.ar    1  UNL1        0.0782
      7  C5        -5.3370    1.3780    1.3920 C.ar    1  UNL1       -0.0355
      8  C6        -6.6320    0.9850    1.6390 C.ar    1  UNL1       -0.0597
      9  C7        -7.1220   -0.1000    0.9030 C.ar    1  UNL1       -0.0609
     10  C8        -6.3180   -0.7300   -0.0230 C.ar    1  UNL1       -0.0474
     11  C9        -5.0110   -0.2930   -0.2360 C.ar    1  UNL1        0.0647
     12  C10       -4.2000   -0.8940   -1.1660 C.ar    1  UNL1        0.2592
     13  O2        -4.6860   -1.8760   -1.8060 O.2     1  UNL1       -0.2672
     14  N2        -2.9510   -0.4580   -1.3870 N.ar    1  UNL1       -0.3100
     15  N3         1.2060    0.1800   -0.7400 N.am    1  UNL1       -0.2338
     16  N4         2.3380   -0.3390   -0.1530 N.am    1  UNL1       -0.2304
     17  C11        3.5970    0.2580   -0.5450 C.2     1  UNL1        0.2601
     18  O3         3.5640    1.2140   -1.4030 O.2     1  UNL1       -0.2687
     19  C12        4.8860   -0.1410   -0.0630 C.ar    1  UNL1        0.0383
     20  C13        5.2430   -0.4050    1.2420 C.ar    1  UNL1       -0.0469
     21  C14        6.5040   -0.7950    1.6310 C.ar    1  UNL1       -0.0257
     22  C15        7.5100   -0.9410    0.6800 C.ar    1  UNL1        0.1234
     23  F1         8.7480   -1.3200    1.0680 F       1  UNL1       -0.2055
     24  C16        7.1760   -0.6830   -0.6520 C.ar    1  UNL1       -0.0257
     25  C17        5.9100   -0.2990   -1.0050 C.ar    1  UNL1       -0.0469
     26 H          -0.9115    0.8313   -1.9962 H       1  UNL1        0.0438
     27 H          -1.1425    2.1236   -0.7744 H       1  UNL1        0.0438
     28 H          -4.9672    2.1766    1.9310 H       1  UNL1        0.0639
     29 H          -7.2173    1.4696    2.3373 H       1  UNL1        0.0618
     30 H          -8.0883   -0.4295    1.0540 H       1  UNL1        0.0618
     31 H          -6.6856   -1.5298   -0.5617 H       1  UNL1        0.0626
     32 H          -2.3818   -0.8986   -2.0586 H       1  UNL1        0.1701
     33 H           1.2676    0.3465   -1.7084 H       1  UNL1        0.1728
     34 H           2.2936   -1.0762    0.4980 H       1  UNL1        0.1731
     35 H           4.5204   -0.3040    1.9719 H       1  UNL1        0.0626
     36 H           6.7037   -0.9790    2.6266 H       1  UNL1        0.0646
     37 H           7.8970   -0.7838   -1.3834 H       1  UNL1        0.0646
     38 H           5.7032   -0.1198   -2.0001 H       1  UNL1        0.0626
@<TRIPOS>BOND
     1     1     2    2
     2     2     3    1
     3     2    15   am
     4     3     4    1
     5     4     5   ar
     6     4    14   ar
     7     5     6   ar
     8     6     7   ar
     9     6    11   ar
    10     7     8   ar
    11     8     9   ar
    12     9    10   ar
    13    10    11   ar
    14    11    12   ar
    15    12    13    2
    16    12    14   ar
    17    15    16    1
    18    16    17   am
    19    17    18    2
    20    17    19    1
    21    19    20   ar
    22    19    25   ar
    23    20    21   ar
    24    21    22   ar
    25    22    23    1
    26    22    24   ar
    27    24    25   ar
    28     3    26    1
    29     3    27    1
    30     7    28    1
    31     8    29    1
    32     9    30    1
    33    10    31    1
    34    14    32    1
    35    15    33    1
    36    16    34    1
    37    20    35    1
    38    21    36    1
    39    24    37    1
    40    25    38    1
@<TRIPOS>MOLECULE
../data/bude_mols_rdkit_confs2/molecule_66.pdb
 38 40 0 0 0
SMALL
GASTEIGER

@<TRIPOS>ATOM
      1  O1        -0.0060    0.0320    0.6330 O.2     1  UNL1       -0.2738
      2  C1         0.1010    1.1990    1.0950 C.2     1  UNL1        0.2364
      3  C2        -1.1430    1.9570    1.3820 C.3     1  UNL1        0.0835
      4  C3        -2.3420    1.0980    1.1090 C.ar    1  UNL1        0.1192
      5  N1        -2.5550    0.5300   -0.1080 N.ar    1  UNL1       -0.2332
      6  C4        -3.6270   -0.2310   -0.3890 C.ar    1  UNL1        0.0782
      7  C5        -3.8090   -0.8110   -1.6490 C.ar    1  UNL1       -0.0355
      8  C6        -4.9110   -1.6030   -1.9270 C.ar    1  UNL1       -0.0597
      9  C7        -5.8130   -1.7800   -0.8830 C.ar    1  UNL1       -0.0609
     10  C8        -5.6380   -1.2110    0.3590 C.ar    1  UNL1       -0.0474
     11  C9        -4.5470   -0.4360    0.6120 C.ar    1  UNL1        0.0647
     12  C10       -4.3370    0.1420    1.8630 C.ar    1  UNL1        0.2592
     13  O2        -5.1710   -0.0410    2.7780 O.2     1  UNL1       -0.2672
     14  N2        -3.2530    0.8930    2.0970 N.ar    1  UNL1       -0.3100
     15  N3         1.4060    1.6940    1.3000 N.am    1  UNL1       -0.2338
     16  N4         2.5770    0.9550    1.0040 N.am    1  UNL1       -0.2304
     17  C11        2.8940    0.6130   -0.3530 C.2     1  UNL1        0.2601
     18  O3         2.0770    1.0030   -1.2230 O.2     1  UNL1       -0.2687
     19  C12        4.0930   -0.1440   -0.7220 C.ar    1  UNL1        0.0383
     20  C13        4.5130   -0.2220   -2.0270 C.ar    1  UNL1       -0.0469
     21  C14        5.6610   -0.9510   -2.3840 C.ar    1  UNL1       -0.0257
     22  C15        6.3960   -1.6090   -1.4180 C.ar    1  UNL1        0.1234
     23  F1         7.5170   -2.3180   -1.6580 F       1  UNL1       -0.2055
     24  C16        5.9700   -1.5290   -0.1010 C.ar    1  UNL1       -0.0257
     25  C17        4.8370   -0.8060    0.2270 C.ar    1  UNL1       -0.0469
     26 H          -1.1803    2.8258    0.7586 H       1  UNL1        0.0438
     27 H          -1.1470    2.2485    2.4115 H       1  UNL1        0.0438
     28 H          -3.1072   -0.6453   -2.3873 H       1  UNL1        0.0639
     29 H          -5.0541   -2.0357   -2.8529 H       1  UNL1        0.0618
     30 H          -6.6491   -2.3626   -1.0460 H       1  UNL1        0.0618
     31 H          -6.3366   -1.3726    1.1012 H       1  UNL1        0.0626
     32 H          -3.1159    1.2966    2.9845 H       1  UNL1        0.1701
     33 H           1.5080    2.6013    1.6684 H       1  UNL1        0.1728
     34 H           3.1766    0.6745    1.7328 H       1  UNL1        0.1731
     35 H           3.9749    0.2646   -2.7610 H       1  UNL1        0.0626
     36 H           5.9555   -0.9945   -3.3721 H       1  UNL1        0.0646
     37 H           6.5018   -2.0122    0.6398 H       1  UNL1        0.0646
     38 H           4.5407   -0.7619    1.2146 H       1  UNL1        0.0626
@<TRIPOS>BOND
     1     1     2    2
     2     2     3    1
     3     2    15   am
     4     3     4    1
     5     4     5   ar
     6     4    14   ar
     7     5     6   ar
     8     6     7   ar
     9     6    11   ar
    10     7     8   ar
    11     8     9   ar
    12     9    10   ar
    13    10    11   ar
    14    11    12   ar
    15    12    13    2
    16    12    14   ar
    17    15    16    1
    18    16    17   am
    19    17    18    2
    20    17    19    1
    21    19    20   ar
    22    19    25   ar
    23    20    21   ar
    24    21    22   ar
    25    22    23    1
    26    22    24   ar
    27    24    25   ar
    28     3    26    1
    29     3    27    1
    30     7    28    1
    31     8    29    1
    32     9    30    1
    33    10    31    1
    34    14    32    1
    35    15    33    1
    36    16    34    1
    37    20    35    1
    38    21    36    1
    39    24    37    1
    40    25    38    1
@<TRIPOS>MOLECULE
../data/bude_mols_rdkit_confs2/molecule_66.pdb
 38 40 0 0 0
SMALL
GASTEIGER

@<TRIPOS>ATOM
      1  O1        -0.1870    0.0430    0.1440 O.2     1  UNL1       -0.2738
      2  C1        -0.0780    1.2810    0.1430 C.2     1  UNL1        0.2364
      3  C2         1.1610    2.0060   -0.1050 C.3     1  UNL1        0.0835
      4  C3         2.3290    1.1580   -0.3470 C.ar    1  UNL1        0.1192
      5  N1         3.0730    0.7460    0.7100 N.ar    1  UNL1       -0.2332
      6  C4         4.1680   -0.0410    0.5070 C.ar    1  UNL1        0.0782
      7  C5         4.9300   -0.4580    1.5630 C.ar    1  UNL1       -0.0355
      8  C6         6.0350   -1.2460    1.3440 C.ar    1  UNL1       -0.0597
      9  C7         6.4010   -1.6350    0.0740 C.ar    1  UNL1       -0.0609
     10  C8         5.6130   -1.2000   -0.9930 C.ar    1  UNL1       -0.0474
     11  C9         4.5110   -0.4120   -0.7680 C.ar    1  UNL1        0.0647
     12  C10        3.7320    0.0250   -1.8160 C.ar    1  UNL1        0.2592
     13  O2         4.0420   -0.3110   -2.9760 O.2     1  UNL1       -0.2672
     14  N2         2.6550    0.8010   -1.5990 N.ar    1  UNL1       -0.3100
     15  N3        -1.2900    2.0210    0.4150 N.am    1  UNL1       -0.2338
     16  N4        -2.4920    1.3740    0.6570 N.am    1  UNL1       -0.2304
     17  C11       -3.1320    0.5670   -0.3660 C.2     1  UNL1        0.2601
     18  O3        -2.5480    0.4960   -1.4700 O.2     1  UNL1       -0.2687
     19  C12       -4.3820   -0.1290   -0.1460 C.ar    1  UNL1        0.0383
     20  C13       -5.4770   -0.0220   -0.9890 C.ar    1  UNL1       -0.0469
     21  C14       -6.6370   -0.7240   -0.7560 C.ar    1  UNL1       -0.0257
     22  C15       -6.7350   -1.5610    0.3370 C.ar    1  UNL1        0.1234
     23  F1        -7.8590   -2.2390    0.5520 F       1  UNL1       -0.2055
     24  C16       -5.6570   -1.6860    1.1940 C.ar    1  UNL1       -0.0257
     25  C17       -4.4960   -0.9670    0.9400 C.ar    1  UNL1       -0.0469
     26 H           1.3651    2.6184    0.7483 H       1  UNL1        0.0438
     27 H           1.0065    2.5697   -1.0012 H       1  UNL1        0.0438
     28 H           4.6757   -0.1813    2.5241 H       1  UNL1        0.0639
     29 H           6.6031   -1.5531    2.1490 H       1  UNL1        0.0618
     30 H           7.2305   -2.2285   -0.0833 H       1  UNL1        0.0618
     31 H           5.8602   -1.4724   -1.9572 H       1  UNL1        0.0626
     32 H           2.1067    1.1066   -2.3574 H       1  UNL1        0.1701
     33 H          -1.2611    3.0050    0.4286 H       1  UNL1        0.1728
     34 H          -2.9196    1.4635    1.5393 H       1  UNL1        0.1731
     35 H          -5.4208    0.5992   -1.8112 H       1  UNL1        0.0626
     36 H          -7.4366   -0.6244   -1.4007 H       1  UNL1        0.0646
     37 H          -5.7146   -2.3082    2.0153 H       1  UNL1        0.0646
     38 H          -3.6956   -1.0639    1.5842 H       1  UNL1        0.0626
@<TRIPOS>BOND
     1     1     2    2
     2     2     3    1
     3     2    15   am
     4     3     4    1
     5     4     5   ar
     6     4    14   ar
     7     5     6   ar
     8     6     7   ar
     9     6    11   ar
    10     7     8   ar
    11     8     9   ar
    12     9    10   ar
    13    10    11   ar
    14    11    12   ar
    15    12    13    2
    16    12    14   ar
    17    15    16    1
    18    16    17   am
    19    17    18    2
    20    17    19    1
    21    19    20   ar
    22    19    25   ar
    23    20    21   ar
    24    21    22   ar
    25    22    23    1
    26    22    24   ar
    27    24    25   ar
    28     3    26    1
    29     3    27    1
    30     7    28    1
    31     8    29    1
    32     9    30    1
    33    10    31    1
    34    14    32    1
    35    15    33    1
    36    16    34    1
    37    20    35    1
    38    21    36    1
    39    24    37    1
    40    25    38    1
@<TRIPOS>MOLECULE
../data/bude_mols_rdkit_confs2/molecule_66.pdb
 38 40 0 0 0
SMALL
GASTEIGER

@<TRIPOS>ATOM
      1  O1        -0.2330   -0.1790   -0.0330 O.2     1  UNL1       -0.2738
      2  C1        -0.0870    0.6940   -0.9250 C.2     1  UNL1        0.2364
      3  C2        -1.2890    1.2630   -1.6330 C.3     1  UNL1        0.0835
      4  C3        -2.5230    0.6170   -1.1000 C.ar    1  UNL1        0.1192
      5  N1        -3.1090    1.0460    0.0310 N.ar    1  UNL1       -0.2332
      6  C4        -4.2140    0.4390    0.4710 C.ar    1  UNL1        0.0782
      7  C5        -4.8170    0.8700    1.6290 C.ar    1  UNL1       -0.0355
      8  C6        -5.9600    0.2340    2.0790 C.ar    1  UNL1       -0.0597
      9  C7        -6.5130   -0.8240    1.3970 C.ar    1  UNL1       -0.0609
     10  C8        -5.9060   -1.2500    0.2430 C.ar    1  UNL1       -0.0474
     11  C9        -4.7690   -0.6350   -0.2260 C.ar    1  UNL1        0.0647
     12  C10       -4.1620   -1.0570   -1.3710 C.ar    1  UNL1        0.2592
     13  O2        -4.6240   -2.0160   -2.0290 O.2     1  UNL1       -0.2672
     14  N2        -3.0390   -0.4170   -1.7910 N.ar    1  UNL1       -0.3100
     15  N3         1.2380    1.1000   -1.2160 N.am    1  UNL1       -0.2338
     16  N4         2.3070    0.5370   -0.5180 N.am    1  UNL1       -0.2304
     17  C11        3.6700    0.7740   -0.7620 C.2     1  UNL1        0.2601
     18  O3         3.9720    1.5620   -1.6910 O.2     1  UNL1       -0.2687
     19  C12        4.7480    0.1550    0.0010 C.ar    1  UNL1        0.0383
     20  C13        4.5570   -0.5580    1.1590 C.ar    1  UNL1       -0.0469
     21  C14        5.5790   -1.1430    1.8640 C.ar    1  UNL1       -0.0257
     22  C15        6.9060   -1.0380    1.4250 C.ar    1  UNL1        0.1234
     23  F1         7.9130   -1.6150    2.1200 F       1  UNL1       -0.2055
     24  C16        7.1060   -0.3230    0.2630 C.ar    1  UNL1       -0.0257
     25  C17        6.0700    0.2590   -0.4350 C.ar    1  UNL1       -0.0469
     26 H          -1.2098    1.0718   -2.6828 H       1  UNL1        0.0438
     27 H          -1.3364    2.3193   -1.4688 H       1  UNL1        0.0438
     28 H          -4.4199    1.6619    2.1584 H       1  UNL1        0.0639
     29 H          -6.4089    0.5619    2.9485 H       1  UNL1        0.0618
     30 H          -7.3664   -1.2877    1.7458 H       1  UNL1        0.0618
     31 H          -6.3083   -2.0432   -0.2806 H       1  UNL1        0.0626
     32 H          -2.5940   -0.7154   -2.6169 H       1  UNL1        0.1701
     33 H           1.4047    1.7784   -1.9097 H       1  UNL1        0.1728
     34 H           2.0855   -0.0839    0.2132 H       1  UNL1        0.1731
     35 H           3.5947   -0.6592    1.5179 H       1  UNL1        0.0626
     36 H           5.3679   -1.6666    2.7279 H       1  UNL1        0.0646
     37 H           8.0675   -0.2199   -0.0974 H       1  UNL1        0.0646
     38 H           6.2762    0.7835   -1.2995 H       1  UNL1        0.0626
@<TRIPOS>BOND
     1     1     2    2
     2     2     3    1
     3     2    15   am
     4     3     4    1
     5     4     5   ar
     6     4    14   ar
     7     5     6   ar
     8     6     7   ar
     9     6    11   ar
    10     7     8   ar
    11     8     9   ar
    12     9    10   ar
    13    10    11   ar
    14    11    12   ar
    15    12    13    2
    16    12    14   ar
    17    15    16    1
    18    16    17   am
    19    17    18    2
    20    17    19    1
    21    19    20   ar
    22    19    25   ar
    23    20    21   ar
    24    21    22   ar
    25    22    23    1
    26    22    24   ar
    27    24    25   ar
    28     3    26    1
    29     3    27    1
    30     7    28    1
    31     8    29    1
    32     9    30    1
    33    10    31    1
    34    14    32    1
    35    15    33    1
    36    16    34    1
    37    20    35    1
    38    21    36    1
    39    24    37    1
    40    25    38    1
@<TRIPOS>MOLECULE
../data/bude_mols_rdkit_confs2/molecule_66.pdb
 38 40 0 0 0
SMALL
GASTEIGER

@<TRIPOS>ATOM
      1  O1         0.3530   -0.1760   -1.4880 O.2     1  UNL1       -0.2738
      2  C1         0.1100   -0.8430   -0.4460 C.2     1  UNL1        0.2364
      3  C2        -1.1150   -1.7060   -0.4020 C.3     1  UNL1        0.0835
      4  C3        -2.3790   -0.9940   -0.2160 C.ar    1  UNL1        0.1192
      5  N1        -3.0870   -0.3980   -1.1910 N.ar    1  UNL1       -0.2332
      6  C4        -4.3040    0.1660   -1.0000 C.ar    1  UNL1        0.0782
      7  C5        -4.9550    0.7670   -2.0570 C.ar    1  UNL1       -0.0355
      8  C6        -6.1740    1.3450   -1.8810 C.ar    1  UNL1       -0.0597
      9  C7        -6.7490    1.3120   -0.6060 C.ar    1  UNL1       -0.0609
     10  C8        -6.1200    0.7240    0.4560 C.ar    1  UNL1       -0.0474
     11  C9        -4.8730    0.1400    0.2550 C.ar    1  UNL1        0.0647
     12  C10       -4.1600   -0.4630    1.2580 C.ar    1  UNL1        0.2592
     13  O2        -4.6670   -0.4890    2.4090 O.2     1  UNL1       -0.2672
     14  N2        -2.9690   -1.0020    1.0270 N.ar    1  UNL1       -0.3100
     15  N3         0.9800   -0.7830    0.6420 N.am    1  UNL1       -0.2338
     16  N4         2.1630   -0.0600    0.6600 N.am    1  UNL1       -0.2304
     17  C11        3.3110   -0.5030   -0.0740 C.2     1  UNL1        0.2601
     18  O3         3.1110   -1.5720   -0.7630 O.2     1  UNL1       -0.2687
     19  C12        4.6150    0.0980   -0.1020 C.ar    1  UNL1        0.0383
     20  C13        4.9640    1.3900    0.1830 C.ar    1  UNL1       -0.0469
     21  C14        6.3030    1.7920    0.1640 C.ar    1  UNL1       -0.0257
     22  C15        7.3260    0.9130   -0.1430 C.ar    1  UNL1        0.1234
     23  F1         8.6140    1.2910   -0.1860 F       1  UNL1       -0.2055
     24  C16        6.9900   -0.3960   -0.4340 C.ar    1  UNL1       -0.0257
     25  C17        5.6920   -0.7690   -0.4120 C.ar    1  UNL1       -0.0469
     26 H          -1.0031   -2.3966    0.4076 H       1  UNL1        0.0438
     27 H          -1.1796   -2.1745   -1.3618 H       1  UNL1        0.0438
     28 H          -4.5135    0.7784   -2.9897 H       1  UNL1        0.0639
     29 H          -6.6630    1.7971   -2.6694 H       1  UNL1        0.0618
     30 H          -7.6752    1.7442   -0.4629 H       1  UNL1        0.0618
     31 H          -6.5615    0.7135    1.3887 H       1  UNL1        0.0626
     32 H          -2.4885   -1.4245    1.7753 H       1  UNL1        0.1701
     33 H           0.7381   -1.2879    1.4518 H       1  UNL1        0.1728
     34 H           2.2150    0.7709    1.1855 H       1  UNL1        0.1731
     35 H           4.2293    2.0766    0.4150 H       1  UNL1        0.0626
     36 H           6.5348    2.7729    0.3854 H       1  UNL1        0.0646
     37 H           7.7248   -1.0825   -0.6661 H       1  UNL1        0.0646
     38 H           5.4697   -1.7516   -0.6360 H       1  UNL1        0.0626
@<TRIPOS>BOND
     1     1     2    2
     2     2     3    1
     3     2    15   am
     4     3     4    1
     5     4     5   ar
     6     4    14   ar
     7     5     6   ar
     8     6     7   ar
     9     6    11   ar
    10     7     8   ar
    11     8     9   ar
    12     9    10   ar
    13    10    11   ar
    14    11    12   ar
    15    12    13    2
    16    12    14   ar
    17    15    16    1
    18    16    17   am
    19    17    18    2
    20    17    19    1
    21    19    20   ar
    22    19    25   ar
    23    20    21   ar
    24    21    22   ar
    25    22    23    1
    26    22    24   ar
    27    24    25   ar
    28     3    26    1
    29     3    27    1
    30     7    28    1
    31     8    29    1
    32     9    30    1
    33    10    31    1
    34    14    32    1
    35    15    33    1
    36    16    34    1
    37    20    35    1
    38    21    36    1
    39    24    37    1
    40    25    38    1
@<TRIPOS>MOLECULE
../data/bude_mols_rdkit_confs2/molecule_66.pdb
 38 40 0 0 0
SMALL
GASTEIGER

@<TRIPOS>ATOM
      1  O1         0.0920   -1.6140    0.8190 O.2     1  UNL1       -0.2738
      2  C1         0.0900   -1.7340   -0.4180 C.2     1  UNL1        0.2364
      3  C2        -1.1420   -2.2310   -1.0910 C.3     1  UNL1        0.0835
      4  C3        -2.3620   -1.6320   -0.4830 C.ar    1  UNL1        0.1192
      5  N1        -2.6220   -0.3170   -0.6180 N.ar    1  UNL1       -0.2332
      6  C4        -3.7310    0.2360   -0.0980 C.ar    1  UNL1        0.0782
      7  C5        -3.9710    1.5680   -0.2430 C.ar    1  UNL1       -0.0355
      8  C6        -5.0990    2.1440    0.2830 C.ar    1  UNL1       -0.0597
      9  C7        -6.0280    1.3770    0.9800 C.ar    1  UNL1       -0.0609
     10  C8        -5.8080    0.0370    1.1390 C.ar    1  UNL1       -0.0474
     11  C9        -4.6630   -0.5380    0.6030 C.ar    1  UNL1        0.0647
     12  C10       -4.3720   -1.8750    0.7230 C.ar    1  UNL1        0.2592
     13  O2        -5.2170   -2.5880    1.3560 O.2     1  UNL1       -0.2672
     14  N2        -3.2420   -2.3750    0.1830 N.ar    1  UNL1       -0.3100
     15  N3         1.2360   -1.3960   -1.1550 N.am    1  UNL1       -0.2338
     16  N4         2.4310   -0.9150   -0.6960 N.am    1  UNL1       -0.2304
     17  C11        2.8870    0.4090   -0.9470 C.2     1  UNL1        0.2601
     18  O3         2.1530    1.1850   -1.6020 O.2     1  UNL1       -0.2687
     19  C12        4.1670    0.9020   -0.4860 C.ar    1  UNL1        0.0383
     20  C13        5.2240    0.0170   -0.2490 C.ar    1  UNL1       -0.0469
     21  C14        6.4570    0.4350    0.1750 C.ar    1  UNL1       -0.0257
     22  C15        6.7250    1.7710    0.3950 C.ar    1  UNL1        0.1234
     23  F1         7.9630    2.1660    0.8100 F       1  UNL1       -0.2055
     24  C16        5.6950    2.6650    0.1700 C.ar    1  UNL1       -0.0257
     25  C17        4.4360    2.2390   -0.2630 C.ar    1  UNL1       -0.0469
     26 H          -1.1889   -3.2955   -0.9929 H       1  UNL1        0.0438
     27 H          -1.1030   -1.9505   -2.1228 H       1  UNL1        0.0438
     28 H          -3.2938    2.1534   -0.7566 H       1  UNL1        0.0639
     29 H          -5.2605    3.1559    0.1608 H       1  UNL1        0.0618
     30 H          -6.8753    1.8158    1.3733 H       1  UNL1        0.0618
     31 H          -6.4884   -0.5435    1.6540 H       1  UNL1        0.0626
     32 H          -3.0593   -3.3368    0.2867 H       1  UNL1        0.1701
     33 H           1.1709   -1.5216   -2.1293 H       1  UNL1        0.1728
     34 H           3.0041   -1.5146   -0.1656 H       1  UNL1        0.1731
     35 H           5.0682   -0.9920   -0.3998 H       1  UNL1        0.0626
     36 H           7.2007   -0.2627    0.3332 H       1  UNL1        0.0646
     37 H           5.8596    3.6719    0.3255 H       1  UNL1        0.0646
     38 H           3.6923    2.9372   -0.4193 H       1  UNL1        0.0626
@<TRIPOS>BOND
     1     1     2    2
     2     2     3    1
     3     2    15   am
     4     3     4    1
     5     4     5   ar
     6     4    14   ar
     7     5     6   ar
     8     6     7   ar
     9     6    11   ar
    10     7     8   ar
    11     8     9   ar
    12     9    10   ar
    13    10    11   ar
    14    11    12   ar
    15    12    13    2
    16    12    14   ar
    17    15    16    1
    18    16    17   am
    19    17    18    2
    20    17    19    1
    21    19    20   ar
    22    19    25   ar
    23    20    21   ar
    24    21    22   ar
    25    22    23    1
    26    22    24   ar
    27    24    25   ar
    28     3    26    1
    29     3    27    1
    30     7    28    1
    31     8    29    1
    32     9    30    1
    33    10    31    1
    34    14    32    1
    35    15    33    1
    36    16    34    1
    37    20    35    1
    38    21    36    1
    39    24    37    1
    40    25    38    1
@<TRIPOS>MOLECULE
../data/bude_mols_rdkit_confs2/molecule_66.pdb
 38 40 0 0 0
SMALL
GASTEIGER

@<TRIPOS>ATOM
      1  O1         0.0380    0.3010    0.2910 O.2     1  UNL1       -0.2738
      2  C1         0.0680    1.4990   -0.0770 C.2     1  UNL1        0.2364
      3  C2        -1.2190    2.1780   -0.3580 C.3     1  UNL1        0.0835
      4  C3        -2.3820    1.2950   -0.1400 C.ar    1  UNL1        0.1192
      5  N1        -2.9300    0.5370   -1.1060 N.ar    1  UNL1       -0.2332
      6  C4        -4.0060   -0.2480   -0.8160 C.ar    1  UNL1        0.0782
      7  C5        -4.5980   -1.0380   -1.7760 C.ar    1  UNL1       -0.0355
      8  C6        -5.6880   -1.8200   -1.4470 C.ar    1  UNL1       -0.0597
      9  C7        -6.2250   -1.8490   -0.1710 C.ar    1  UNL1       -0.0609
     10  C8        -5.6270   -1.0550    0.7850 C.ar    1  UNL1       -0.0474
     11  C9        -4.5410   -0.2760    0.4540 C.ar    1  UNL1        0.0647
     12  C10       -3.9680    0.5080    1.4410 C.ar    1  UNL1        0.2592
     13  O2        -4.4600    0.4790    2.5960 O.2     1  UNL1       -0.2672
     14  N2        -2.9150    1.2600    1.1040 N.ar    1  UNL1       -0.3100
     15  N3         1.3250    2.1310   -0.2030 N.am    1  UNL1       -0.2338
     16  N4         2.5620    1.5380    0.0490 N.am    1  UNL1       -0.2304
     17  C11        2.9900    0.3020   -0.4930 C.2     1  UNL1        0.2601
     18  O3         2.1500   -0.2740   -1.2610 O.2     1  UNL1       -0.2687
     19  C12        4.2920   -0.3080   -0.2210 C.ar    1  UNL1        0.0383
     20  C13        4.5810   -1.5250   -0.7810 C.ar    1  UNL1       -0.0469
     21  C14        5.8090   -2.1220   -0.5410 C.ar    1  UNL1       -0.0257
     22  C15        6.7600   -1.5040    0.2650 C.ar    1  UNL1        0.1234
     23  F1         7.9610   -2.0420    0.5270 F       1  UNL1       -0.2055
     24  C16        6.4720   -0.2790    0.8290 C.ar    1  UNL1       -0.0257
     25  C17        5.2440    0.2910    0.5740 C.ar    1  UNL1       -0.0469
     26 H          -1.2206    2.5025   -1.3776 H       1  UNL1        0.0438
     27 H          -1.3058    3.0036    0.3171 H       1  UNL1        0.0438
     28 H          -4.2280   -1.0458   -2.7394 H       1  UNL1        0.0639
     29 H          -6.1186   -2.4049   -2.1801 H       1  UNL1        0.0618
     30 H          -7.0396   -2.4407    0.0554 H       1  UNL1        0.0618
     31 H          -5.9939   -1.0447    1.7495 H       1  UNL1        0.0626
     32 H          -2.5035    1.8207    1.8008 H       1  UNL1        0.1701
     33 H           1.3282    3.0715   -0.4939 H       1  UNL1        0.1728
     34 H           3.1827    2.0134    0.6473 H       1  UNL1        0.1731
     35 H           3.8856   -1.9963   -1.3804 H       1  UNL1        0.0626
     36 H           6.0208   -3.0381   -0.9663 H       1  UNL1        0.0646
     37 H           7.1614    0.2003    1.4290 H       1  UNL1        0.0646
     38 H           5.0279    1.2071    0.9972 H       1  UNL1        0.0626
@<TRIPOS>BOND
     1     1     2    2
     2     2     3    1
     3     2    15   am
     4     3     4    1
     5     4     5   ar
     6     4    14   ar
     7     5     6   ar
     8     6     7   ar
     9     6    11   ar
    10     7     8   ar
    11     8     9   ar
    12     9    10   ar
    13    10    11   ar
    14    11    12   ar
    15    12    13    2
    16    12    14   ar
    17    15    16    1
    18    16    17   am
    19    17    18    2
    20    17    19    1
    21    19    20   ar
    22    19    25   ar
    23    20    21   ar
    24    21    22   ar
    25    22    23    1
    26    22    24   ar
    27    24    25   ar
    28     3    26    1
    29     3    27    1
    30     7    28    1
    31     8    29    1
    32     9    30    1
    33    10    31    1
    34    14    32    1
    35    15    33    1
    36    16    34    1
    37    20    35    1
    38    21    36    1
    39    24    37    1
    40    25    38    1
@<TRIPOS>MOLECULE
../data/bude_mols_rdkit_confs2/molecule_66.pdb
 38 40 0 0 0
SMALL
GASTEIGER

@<TRIPOS>ATOM
      1  O1        -0.0600   -0.5860   -0.2980 O.2     1  UNL1       -0.2738
      2  C1        -0.0310   -1.2410    0.7750 C.2     1  UNL1        0.2364
      3  C2        -1.2950   -1.5290    1.4740 C.3     1  UNL1        0.0835
      4  C3        -2.4830   -0.9720    0.7760 C.ar    1  UNL1        0.1192
      5  N1        -2.9400    0.2740    1.0540 N.ar    1  UNL1       -0.2332
      6  C4        -4.0100    0.8090    0.4430 C.ar    1  UNL1        0.0782
      7  C5        -4.4740    2.0880    0.7340 C.ar    1  UNL1       -0.0355
      8  C6        -5.5730    2.6440    0.1110 C.ar    1  UNL1       -0.0597
      9  C7        -6.2520    1.9210   -0.8410 C.ar    1  UNL1       -0.0609
     10  C8        -5.8100    0.6520   -1.1440 C.ar    1  UNL1       -0.0474
     11  C9        -4.7010    0.0980   -0.5110 C.ar    1  UNL1        0.0647
     12  C10       -4.2420   -1.1690   -0.7990 C.ar    1  UNL1        0.2592
     13  O2        -4.8540   -1.8360   -1.6640 O.2     1  UNL1       -0.2672
     14  N2        -3.1610   -1.6640   -0.1570 N.ar    1  UNL1       -0.3100
     15  N3         1.2430   -1.6560    1.2310 N.am    1  UNL1       -0.2338
     16  N4         2.4410   -1.3750    0.5540 N.am    1  UNL1       -0.2304
     17  C11        3.2520   -0.2550    0.8250 C.2     1  UNL1        0.2601
     18  O3         2.8180    0.5070    1.7470 O.2     1  UNL1       -0.2687
     19  C12        4.4980    0.0490    0.1300 C.ar    1  UNL1        0.0383
     20  C13        5.1580    1.2140    0.5080 C.ar    1  UNL1       -0.0469
     21  C14        6.3430    1.5900   -0.0860 C.ar    1  UNL1       -0.0257
     22  C15        6.8530    0.7670   -1.0730 C.ar    1  UNL1        0.1234
     23  F1         8.0260    1.1460   -1.6540 F       1  UNL1       -0.2055
     24  C16        6.2320   -0.3930   -1.4760 C.ar    1  UNL1       -0.0257
     25  C17        5.0310   -0.7370   -0.8450 C.ar    1  UNL1       -0.0469
     26 H          -1.2463   -1.1056    2.4555 H       1  UNL1        0.0438
     27 H          -1.4099   -2.5924    1.5037 H       1  UNL1        0.0438
     28 H          -3.9753    2.6445    1.4458 H       1  UNL1        0.0639
     29 H          -5.8832    3.5967    0.3583 H       1  UNL1        0.0618
     30 H          -7.0752    2.3204   -1.3184 H       1  UNL1        0.0618
     31 H          -6.3124    0.0996   -1.8564 H       1  UNL1        0.0626
     32 H          -2.8558   -2.5724   -0.3824 H       1  UNL1        0.1701
     33 H           1.2921   -2.1701    2.0692 H       1  UNL1        0.1728
     34 H           2.7313   -1.9973   -0.1515 H       1  UNL1        0.1731
     35 H           4.7521    1.8081    1.2478 H       1  UNL1        0.0626
     36 H           6.8319    2.4542    0.1955 H       1  UNL1        0.0646
     37 H           6.6369   -0.9873   -2.2162 H       1  UNL1        0.0646
     38 H           4.5411   -1.6015   -1.1238 H       1  UNL1        0.0626
@<TRIPOS>BOND
     1     1     2    2
     2     2     3    1
     3     2    15   am
     4     3     4    1
     5     4     5   ar
     6     4    14   ar
     7     5     6   ar
     8     6     7   ar
     9     6    11   ar
    10     7     8   ar
    11     8     9   ar
    12     9    10   ar
    13    10    11   ar
    14    11    12   ar
    15    12    13    2
    16    12    14   ar
    17    15    16    1
    18    16    17   am
    19    17    18    2
    20    17    19    1
    21    19    20   ar
    22    19    25   ar
    23    20    21   ar
    24    21    22   ar
    25    22    23    1
    26    22    24   ar
    27    24    25   ar
    28     3    26    1
    29     3    27    1
    30     7    28    1
    31     8    29    1
    32     9    30    1
    33    10    31    1
    34    14    32    1
    35    15    33    1
    36    16    34    1
    37    20    35    1
    38    21    36    1
    39    24    37    1
    40    25    38    1
