@<TRIPOS>MOLECULE
../data/bude_mols_rdkit_confs2/molecule_91.pdb
 34 35 0 0 0
SMALL
GASTEIGER

@<TRIPOS>ATOM
      1  N1         2.4130   -1.7630   -3.1320 N.3     1  UNL1       -0.1906
      2  S1         3.1420   -1.3510   -1.6160 S.O2    1  UNL1        0.1067
      3  O1         2.7440    0.0360   -1.2200 O.2     1  UNL1       -0.1383
      4  O2         4.6370   -1.4830   -1.7390 O.2     1  UNL1       -0.1383
      5  N2         2.6210   -2.4450   -0.4160 N.pl3   1  UNL1       -0.2067
      6  C1         1.4970   -2.1640    0.3840 C.ar    1  UNL1        0.0508
      7  C2         0.4780   -3.1080    0.5520 C.ar    1  UNL1       -0.0392
      8  C3        -0.6180   -2.8190    1.3250 C.ar    1  UNL1       -0.0582
      9  C4        -0.7000   -1.5850    1.9330 C.ar    1  UNL1       -0.0392
     10  C5         0.2710   -0.6200    1.8030 C.ar    1  UNL1        0.0498
     11  N3         0.1440    0.6330    2.4510 N.pl3   1  UNL1       -0.2160
     12  S2        -1.2700    1.5890    2.4760 S.O2    1  UNL1        0.0780
     13  O3        -1.0640    2.8680    3.2200 O.2     1  UNL1       -0.1498
     14  O4        -2.4300    0.8010    2.9970 O.2     1  UNL1       -0.1498
     15  C6        -1.6840    2.0440    0.8130 C.ar    1  UNL1        0.1843
     16  C7        -1.1530    3.2090    0.2660 C.ar    1  UNL1        0.1907
     17  F1        -0.3370    3.9390    1.0430 F       1  UNL1       -0.2002
     18  C8        -1.4570    3.5920   -1.0220 C.ar    1  UNL1        0.1983
     19  F2        -0.9310    4.7440   -1.5600 F       1  UNL1       -0.1993
     20  C9        -2.3010    2.8130   -1.7910 C.ar    1  UNL1        0.1992
     21  F3        -2.6270    3.1530   -3.0650 F       1  UNL1       -0.1993
     22  C10       -2.8220    1.6610   -1.2400 C.ar    1  UNL1        0.1983
     23  F4        -3.6620    0.8450   -1.9430 F       1  UNL1       -0.1993
     24  C11       -2.5260    1.2670    0.0470 C.ar    1  UNL1        0.1907
     25  F5        -3.0280    0.1430    0.6070 F       1  UNL1       -0.2002
     26  C12        1.3740   -0.9500    1.0080 C.ar    1  UNL1       -0.0169
     27 H           2.7255   -1.1079   -3.8487 H       1  UNL1        0.1456
     28 H           1.3979   -1.7137   -3.0457 H       1  UNL1        0.1456
     29 H           3.1140   -3.2863   -0.2805 H       1  UNL1        0.1747
     30 H           0.5514   -4.0284    0.0911 H       1  UNL1        0.0636
     31 H          -1.3696   -3.5152    1.4493 H       1  UNL1        0.0619
     32 H          -1.5280   -1.3755    2.5123 H       1  UNL1        0.0636
     33 H           0.9341    0.9802    2.9247 H       1  UNL1        0.1737
     34 H           2.1243   -0.2519    0.8867 H       1  UNL1        0.0655
@<TRIPOS>BOND
     1     1     2    1
     2     2     3    2
     3     2     4    2
     4     2     5    1
     5     5     6    1
     6     6     7   ar
     7     6    26   ar
     8     7     8   ar
     9     8     9   ar
    10     9    10   ar
    11    10    11    1
    12    10    26   ar
    13    11    12    1
    14    12    13    2
    15    12    14    2
    16    12    15    1
    17    15    16   ar
    18    15    24   ar
    19    16    17    1
    20    16    18   ar
    21    18    19    1
    22    18    20   ar
    23    20    21    1
    24    20    22   ar
    25    22    23    1
    26    22    24   ar
    27    24    25    1
    28     1    27    1
    29     1    28    1
    30     5    29    1
    31     7    30    1
    32     8    31    1
    33     9    32    1
    34    11    33    1
    35    26    34    1
@<TRIPOS>MOLECULE
../data/bude_mols_rdkit_confs2/molecule_91.pdb
 34 35 0 0 0
SMALL
GASTEIGER

@<TRIPOS>ATOM
      1  N1        -5.7530    1.4830    0.4330 N.3     1  UNL1       -0.1906
      2  S1        -5.5150   -0.2130    0.1820 S.O2    1  UNL1        0.1067
      3  O1        -5.5750   -0.5610   -1.2730 O.2     1  UNL1       -0.1383
      4  O2        -6.7010   -0.9030    0.8250 O.2     1  UNL1       -0.1383
      5  N2        -4.0470   -0.7240    0.8700 N.pl3   1  UNL1       -0.2067
      6  C1        -2.8410   -0.7280    0.1520 C.ar    1  UNL1        0.0508
      7  C2        -2.7280   -1.2510   -1.1150 C.ar    1  UNL1       -0.0392
      8  C3        -1.5400   -1.2620   -1.8170 C.ar    1  UNL1       -0.0582
      9  C4        -0.4300   -0.7120   -1.1850 C.ar    1  UNL1       -0.0392
     10  C5        -0.4760   -0.1770    0.0740 C.ar    1  UNL1        0.0498
     11  N3         0.6700    0.3770    0.7020 N.pl3   1  UNL1       -0.2160
     12  S2         1.7830    1.4460   -0.0410 S.O2    1  UNL1        0.0780
     13  O3         1.3550    1.8570   -1.4070 O.2     1  UNL1       -0.1498
     14  O4         1.9710    2.6610    0.8360 O.2     1  UNL1       -0.1498
     15  C6         3.3740    0.7060   -0.2010 C.ar    1  UNL1        0.1843
     16  C7         3.7970    0.0390   -1.3150 C.ar    1  UNL1        0.1907
     17  F1         2.9550   -0.0530   -2.3930 F       1  UNL1       -0.2002
     18  C8         5.0570   -0.5400   -1.3970 C.ar    1  UNL1        0.1983
     19  F2         5.4290   -1.2000   -2.5430 F       1  UNL1       -0.1993
     20  C9         5.9360   -0.4590   -0.3400 C.ar    1  UNL1        0.1992
     21  F3         7.1460   -1.0430   -0.4830 F       1  UNL1       -0.1993
     22  C10        5.5240    0.2110    0.7910 C.ar    1  UNL1        0.1983
     23  F4         6.3840    0.2990    1.8440 F       1  UNL1       -0.1993
     24  C11        4.2760    0.7830    0.8670 C.ar    1  UNL1        0.1907
     25  F5         3.8670    1.4480    1.9890 F       1  UNL1       -0.2002
     26  C12       -1.7070   -0.1930    0.7390 C.ar    1  UNL1       -0.0169
     27 H          -6.6378    1.7680    0.0131 H       1  UNL1        0.1456
     28 H          -4.9887    2.0013   -0.0000 H       1  UNL1        0.1456
     29 H          -4.0425   -1.0283    1.8063 H       1  UNL1        0.1747
     30 H          -3.5681   -1.6526   -1.5600 H       1  UNL1        0.0636
     31 H          -1.4781   -1.6600   -2.7671 H       1  UNL1        0.0619
     32 H           0.4706   -0.7070   -1.6889 H       1  UNL1        0.0636
     33 H           0.8385    0.1269    1.6392 H       1  UNL1        0.1737
     34 H          -1.7712    0.2034    1.6897 H       1  UNL1        0.0655
@<TRIPOS>BOND
     1     1     2    1
     2     2     3    2
     3     2     4    2
     4     2     5    1
     5     5     6    1
     6     6     7   ar
     7     6    26   ar
     8     7     8   ar
     9     8     9   ar
    10     9    10   ar
    11    10    11    1
    12    10    26   ar
    13    11    12    1
    14    12    13    2
    15    12    14    2
    16    12    15    1
    17    15    16   ar
    18    15    24   ar
    19    16    17    1
    20    16    18   ar
    21    18    19    1
    22    18    20   ar
    23    20    21    1
    24    20    22   ar
    25    22    23    1
    26    22    24   ar
    27    24    25    1
    28     1    27    1
    29     1    28    1
    30     5    29    1
    31     7    30    1
    32     8    31    1
    33     9    32    1
    34    11    33    1
    35    26    34    1
@<TRIPOS>MOLECULE
../data/bude_mols_rdkit_confs2/molecule_91.pdb
 34 35 0 0 0
SMALL
GASTEIGER

@<TRIPOS>ATOM
      1  N1         3.4900    3.2070    0.5250 N.3     1  UNL1       -0.1906
      2  S1         4.2560    1.8430   -0.2310 S.O2    1  UNL1        0.1067
      3  O1         5.1120    1.2020    0.8200 O.2     1  UNL1       -0.1383
      4  O2         5.1780    2.3110   -1.3230 O.2     1  UNL1       -0.1383
      5  N2         3.0610    0.7760   -0.8610 N.pl3   1  UNL1       -0.2067
      6  C1         2.5410   -0.2830   -0.0730 C.ar    1  UNL1        0.0508
      7  C2         3.3190   -1.1470    0.6740 C.ar    1  UNL1       -0.0392
      8  C3         2.7730   -2.1640    1.4210 C.ar    1  UNL1       -0.0582
      9  C4         1.4230   -2.3850    1.4710 C.ar    1  UNL1       -0.0392
     10  C5         0.5990   -1.5300    0.7260 C.ar    1  UNL1        0.0498
     11  N3        -0.7860   -1.7770    0.7890 N.pl3   1  UNL1       -0.2160
     12  S2        -1.8700   -1.8240   -0.5360 S.O2    1  UNL1        0.0780
     13  O3        -2.5990   -3.1440   -0.4860 O.2     1  UNL1       -0.1498
     14  O4        -1.1050   -1.7560   -1.8140 O.2     1  UNL1       -0.1498
     15  C6        -3.0110   -0.5120   -0.4040 C.ar    1  UNL1        0.1843
     16  C7        -4.1760   -0.6780    0.3580 C.ar    1  UNL1        0.1907
     17  F1        -4.3430   -1.8750    0.9700 F       1  UNL1       -0.2002
     18  C8        -5.0650    0.3380    0.4480 C.ar    1  UNL1        0.1983
     19  F2        -6.1850    0.1530    1.1920 F       1  UNL1       -0.1993
     20  C9        -4.8460    1.5240   -0.1910 C.ar    1  UNL1        0.1992
     21  F3        -5.7560    2.5150   -0.0770 F       1  UNL1       -0.1993
     22  C10       -3.7040    1.6970   -0.9420 C.ar    1  UNL1        0.1983
     23  F4        -3.4620    2.8720   -1.5900 F       1  UNL1       -0.1993
     24  C11       -2.7860    0.6660   -1.0440 C.ar    1  UNL1        0.1907
     25  F5        -1.6870    0.8830   -1.8040 F       1  UNL1       -0.2002
     26  C12        1.1610   -0.5180   -0.0150 C.ar    1  UNL1       -0.0169
     27 H           4.2031    3.8349    0.8960 H       1  UNL1        0.1456
     28 H           2.8930    2.8831    1.2860 H       1  UNL1        0.1456
     29 H           2.7339    0.9024   -1.7809 H       1  UNL1        0.1747
     30 H           4.3437   -1.0248    0.6711 H       1  UNL1        0.0636
     31 H           3.4006   -2.7801    1.9609 H       1  UNL1        0.0619
     32 H           1.0267   -3.1523    2.0360 H       1  UNL1        0.0636
     33 H          -1.1683   -1.9384    1.6818 H       1  UNL1        0.1737
     34 H           0.5353    0.0995   -0.5556 H       1  UNL1        0.0655
@<TRIPOS>BOND
     1     1     2    1
     2     2     3    2
     3     2     4    2
     4     2     5    1
     5     5     6    1
     6     6     7   ar
     7     6    26   ar
     8     7     8   ar
     9     8     9   ar
    10     9    10   ar
    11    10    11    1
    12    10    26   ar
    13    11    12    1
    14    12    13    2
    15    12    14    2
    16    12    15    1
    17    15    16   ar
    18    15    24   ar
    19    16    17    1
    20    16    18   ar
    21    18    19    1
    22    18    20   ar
    23    20    21    1
    24    20    22   ar
    25    22    23    1
    26    22    24   ar
    27    24    25    1
    28     1    27    1
    29     1    28    1
    30     5    29    1
    31     7    30    1
    32     8    31    1
    33     9    32    1
    34    11    33    1
    35    26    34    1
@<TRIPOS>MOLECULE
../data/bude_mols_rdkit_confs2/molecule_91.pdb
 34 35 0 0 0
SMALL
GASTEIGER

@<TRIPOS>ATOM
      1  N1        -5.7900    0.5070    0.2240 N.3     1  UNL1       -0.1906
      2  S1        -4.6990    1.4980   -0.6600 S.O2    1  UNL1        0.1067
      3  O1        -5.1600    2.9240   -0.4950 O.2     1  UNL1       -0.1383
      4  O2        -4.8250    1.1470   -2.1040 O.2     1  UNL1       -0.1383
      5  N2        -3.0860    1.3650   -0.1070 N.pl3   1  UNL1       -0.2067
      6  C1        -2.1320    0.4300   -0.5930 C.ar    1  UNL1        0.0508
      7  C2        -1.9980    0.2260   -1.9390 C.ar    1  UNL1       -0.0392
      8  C3        -1.0570   -0.6940   -2.3980 C.ar    1  UNL1       -0.0582
      9  C4        -0.2700   -1.3920   -1.5080 C.ar    1  UNL1       -0.0392
     10  C5        -0.3870   -1.2040   -0.1470 C.ar    1  UNL1        0.0498
     11  N3         0.4100   -1.9120    0.7900 N.pl3   1  UNL1       -0.2160
     12  S2         2.0910   -2.1460    0.6570 S.O2    1  UNL1        0.0780
     13  O3         2.5920   -2.9610    1.8210 O.2     1  UNL1       -0.1498
     14  O4         2.4790   -2.9000   -0.5820 O.2     1  UNL1       -0.1498
     15  C6         3.0010   -0.6570    0.6600 C.ar    1  UNL1        0.1843
     16  C7         3.4590   -0.0730    1.7980 C.ar    1  UNL1        0.1907
     17  F1         3.2030   -0.6630    2.9850 F       1  UNL1       -0.2002
     18  C8         4.1780    1.1040    1.7700 C.ar    1  UNL1        0.1983
     19  F2         4.6440    1.7030    2.8890 F       1  UNL1       -0.1993
     20  C9         4.4230    1.6830    0.5350 C.ar    1  UNL1        0.1992
     21  F3         5.1340    2.8450    0.5160 F       1  UNL1       -0.1993
     22  C10        3.9780    1.1270   -0.6490 C.ar    1  UNL1        0.1983
     23  F4         4.2340    1.7190   -1.8400 F       1  UNL1       -0.1993
     24  C11        3.2590   -0.0600   -0.5550 C.ar    1  UNL1        0.1907
     25  F5         2.8200   -0.6150   -1.6910 F       1  UNL1       -0.2002
     26  C12       -1.3360   -0.2760    0.2910 C.ar    1  UNL1       -0.0169
     27 H          -6.7330    0.6252   -0.1463 H       1  UNL1        0.1456
     28 H          -5.7745    0.7775    1.2074 H       1  UNL1        0.1456
     29 H          -2.7961    1.9833    0.6022 H       1  UNL1        0.1747
     30 H          -2.5870    0.7474   -2.6070 H       1  UNL1        0.0636
     31 H          -0.9489   -0.8536   -3.4118 H       1  UNL1        0.0619
     32 H           0.4209   -2.0691   -1.8673 H       1  UNL1        0.0636
     33 H          -0.0429   -2.2963    1.5751 H       1  UNL1        0.1737
     34 H          -1.4461   -0.1127    1.3040 H       1  UNL1        0.0655
@<TRIPOS>BOND
     1     1     2    1
     2     2     3    2
     3     2     4    2
     4     2     5    1
     5     5     6    1
     6     6     7   ar
     7     6    26   ar
     8     7     8   ar
     9     8     9   ar
    10     9    10   ar
    11    10    11    1
    12    10    26   ar
    13    11    12    1
    14    12    13    2
    15    12    14    2
    16    12    15    1
    17    15    16   ar
    18    15    24   ar
    19    16    17    1
    20    16    18   ar
    21    18    19    1
    22    18    20   ar
    23    20    21    1
    24    20    22   ar
    25    22    23    1
    26    22    24   ar
    27    24    25    1
    28     1    27    1
    29     1    28    1
    30     5    29    1
    31     7    30    1
    32     8    31    1
    33     9    32    1
    34    11    33    1
    35    26    34    1
@<TRIPOS>MOLECULE
../data/bude_mols_rdkit_confs2/molecule_91.pdb
 34 35 0 0 0
SMALL
GASTEIGER

@<TRIPOS>ATOM
      1  N1         5.7890   -0.8700    1.3500 N.3     1  UNL1       -0.1906
      2  S1         5.5410   -0.1560   -0.2270 S.O2    1  UNL1        0.1067
      3  O1         6.7840   -0.5290   -1.0250 O.2     1  UNL1       -0.1383
      4  O2         5.5780    1.3350   -0.0920 O.2     1  UNL1       -0.1383
      5  N2         4.1370   -0.7730   -0.9510 N.pl3   1  UNL1       -0.2067
      6  C1         2.8430   -0.1740   -0.7950 C.ar    1  UNL1        0.0508
      7  C2         2.7180    1.1960   -0.9470 C.ar    1  UNL1       -0.0392
      8  C3         1.4730    1.7470   -0.7980 C.ar    1  UNL1       -0.0582
      9  C4         0.3830    0.9510   -0.5070 C.ar    1  UNL1       -0.0392
     10  C5         0.4790   -0.4120   -0.3510 C.ar    1  UNL1        0.0498
     11  N3        -0.6230   -1.2530   -0.0580 N.pl3   1  UNL1       -0.2160
     12  S2        -1.7380   -0.8690    1.1610 S.O2    1  UNL1        0.0780
     13  O3        -1.7150   -1.9240    2.2460 O.2     1  UNL1       -0.1498
     14  O4        -1.2530    0.3980    1.8600 O.2     1  UNL1       -0.1498
     15  C6        -3.3500   -0.5550    0.6270 C.ar    1  UNL1        0.1843
     16  C7        -3.7770    0.7260    0.3970 C.ar    1  UNL1        0.1907
     17  F1        -2.9750    1.8180    0.6070 F       1  UNL1       -0.2002
     18  C8        -5.0580    1.0180   -0.0470 C.ar    1  UNL1        0.1983
     19  F2        -5.4480    2.2920   -0.2650 F       1  UNL1       -0.1993
     20  C9        -5.9400   -0.0040   -0.2680 C.ar    1  UNL1        0.1992
     21  F3        -7.2080    0.2730   -0.7080 F       1  UNL1       -0.1993
     22  C10       -5.5380   -1.3000   -0.0450 C.ar    1  UNL1        0.1983
     23  F4        -6.4180   -2.3040   -0.2660 F       1  UNL1       -0.1993
     24  C11       -4.2700   -1.5660    0.3930 C.ar    1  UNL1        0.1907
     25  F5        -3.8570   -2.8330    0.6180 F       1  UNL1       -0.2002
     26  C12        1.7620   -0.9640   -0.5060 C.ar    1  UNL1       -0.0169
     27 H           6.6368   -0.4862    1.7675 H       1  UNL1        0.1456
     28 H           5.8847   -1.8810    1.2543 H       1  UNL1        0.1456
     29 H           4.2139   -1.5825   -1.5060 H       1  UNL1        0.1747
     30 H           3.5374    1.7840   -1.1658 H       1  UNL1        0.0636
     31 H           1.3485    2.7660   -0.9042 H       1  UNL1        0.0619
     32 H          -0.5417    1.3971   -0.4023 H       1  UNL1        0.0636
     33 H          -0.7446   -2.0817   -0.5754 H       1  UNL1        0.1737
     34 H           1.8920   -1.9823   -0.4002 H       1  UNL1        0.0655
@<TRIPOS>BOND
     1     1     2    1
     2     2     3    2
     3     2     4    2
     4     2     5    1
     5     5     6    1
     6     6     7   ar
     7     6    26   ar
     8     7     8   ar
     9     8     9   ar
    10     9    10   ar
    11    10    11    1
    12    10    26   ar
    13    11    12    1
    14    12    13    2
    15    12    14    2
    16    12    15    1
    17    15    16   ar
    18    15    24   ar
    19    16    17    1
    20    16    18   ar
    21    18    19    1
    22    18    20   ar
    23    20    21    1
    24    20    22   ar
    25    22    23    1
    26    22    24   ar
    27    24    25    1
    28     1    27    1
    29     1    28    1
    30     5    29    1
    31     7    30    1
    32     8    31    1
    33     9    32    1
    34    11    33    1
    35    26    34    1
@<TRIPOS>MOLECULE
../data/bude_mols_rdkit_confs2/molecule_91.pdb
 34 35 0 0 0
SMALL
GASTEIGER

@<TRIPOS>ATOM
      1  N1         5.6850    0.9330    1.8010 N.3     1  UNL1       -0.1906
      2  S1         4.9510   -0.5110    1.2030 S.O2    1  UNL1        0.1067
      3  O1         4.0830   -1.1190    2.2760 O.2     1  UNL1       -0.1383
      4  O2         6.0720   -1.4910    0.9100 O.2     1  UNL1       -0.1383
      5  N2         4.0200   -0.2330   -0.2100 N.pl3   1  UNL1       -0.2067
      6  C1         2.6430    0.0980   -0.1300 C.ar    1  UNL1        0.0508
      7  C2         2.1970    1.0340    0.7720 C.ar    1  UNL1       -0.0392
      8  C3         0.8620    1.3600    0.8540 C.ar    1  UNL1       -0.0582
      9  C4        -0.0470    0.7180   -0.0050 C.ar    1  UNL1       -0.0392
     10  C5         0.3610   -0.2110   -0.9080 C.ar    1  UNL1        0.0498
     11  N3        -0.5270   -0.8420   -1.7980 N.pl3   1  UNL1       -0.2160
     12  S2        -1.9160   -1.6890   -1.3100 S.O2    1  UNL1        0.0780
     13  O3        -2.5680   -2.3860   -2.4840 O.2     1  UNL1       -0.1498
     14  O4        -1.4700   -2.7570   -0.3050 O.2     1  UNL1       -0.1498
     15  C6        -3.0710   -0.7060   -0.4710 C.ar    1  UNL1        0.1843
     16  C7        -3.1000   -0.6680    0.9250 C.ar    1  UNL1        0.1907
     17  F1        -2.1970   -1.4250    1.5760 F       1  UNL1       -0.2002
     18  C8        -4.0360    0.1280    1.5520 C.ar    1  UNL1        0.1983
     19  F2        -4.0260    0.1320    2.9150 F       1  UNL1       -0.1993
     20  C9        -4.9200    0.8690    0.8120 C.ar    1  UNL1        0.1992
     21  F3        -5.8320    1.6450    1.4860 F       1  UNL1       -0.1993
     22  C10       -4.8830    0.8240   -0.5570 C.ar    1  UNL1        0.1983
     23  F4        -5.7600    1.5590   -1.2810 F       1  UNL1       -0.1993
     24  C11       -3.9680    0.0450   -1.2100 C.ar    1  UNL1        0.1907
     25  F5        -3.9120   -0.0150   -2.5820 F       1  UNL1       -0.2002
     26  C12        1.7290   -0.5110   -0.9550 C.ar    1  UNL1       -0.0169
     27 H           6.2259    0.7178    2.6386 H       1  UNL1        0.1456
     28 H           4.9602    1.6132    2.0298 H       1  UNL1        0.1456
     29 H           4.4492   -0.3045   -1.0931 H       1  UNL1        0.1747
     30 H           2.8731    1.4996    1.3974 H       1  UNL1        0.0636
     31 H           0.5342    2.0635    1.5342 H       1  UNL1        0.0619
     32 H          -1.0490    0.9585    0.0519 H       1  UNL1        0.0636
     33 H          -0.3317   -0.7895   -2.7615 H       1  UNL1        0.1737
     34 H           2.0615   -1.2142   -1.6333 H       1  UNL1        0.0655
@<TRIPOS>BOND
     1     1     2    1
     2     2     3    2
     3     2     4    2
     4     2     5    1
     5     5     6    1
     6     6     7   ar
     7     6    26   ar
     8     7     8   ar
     9     8     9   ar
    10     9    10   ar
    11    10    11    1
    12    10    26   ar
    13    11    12    1
    14    12    13    2
    15    12    14    2
    16    12    15    1
    17    15    16   ar
    18    15    24   ar
    19    16    17    1
    20    16    18   ar
    21    18    19    1
    22    18    20   ar
    23    20    21    1
    24    20    22   ar
    25    22    23    1
    26    22    24   ar
    27    24    25    1
    28     1    27    1
    29     1    28    1
    30     5    29    1
    31     7    30    1
    32     8    31    1
    33     9    32    1
    34    11    33    1
    35    26    34    1
@<TRIPOS>MOLECULE
../data/bude_mols_rdkit_confs2/molecule_91.pdb
 34 35 0 0 0
SMALL
GASTEIGER

@<TRIPOS>ATOM
      1  N1        -6.3210    0.3250   -0.7190 N.3     1  UNL1       -0.1906
      2  S1        -5.3570   -0.9980   -0.2130 S.O2    1  UNL1        0.1067
      3  O1        -6.2710   -2.0320    0.3790 O.2     1  UNL1       -0.1383
      4  O2        -4.6950   -1.5760   -1.4290 O.2     1  UNL1       -0.1383
      5  N2        -4.1420   -0.5350    0.9210 N.pl3   1  UNL1       -0.2067
      6  C1        -2.8740   -0.1350    0.4200 C.ar    1  UNL1        0.0508
      7  C2        -2.8480    0.7350   -0.6580 C.ar    1  UNL1       -0.0392
      8  C3        -1.6660    1.1640   -1.1940 C.ar    1  UNL1       -0.0582
      9  C4        -0.4910    0.7020   -0.6270 C.ar    1  UNL1       -0.0392
     10  C5        -0.4360   -0.1590    0.4390 C.ar    1  UNL1        0.0498
     11  N3         0.7540   -0.6540    1.0360 N.pl3   1  UNL1       -0.2160
     12  S2         2.0250    0.3580    1.4330 S.O2    1  UNL1        0.0780
     13  O3         1.5700    1.8030    1.2550 O.2     1  UNL1       -0.1498
     14  O4         2.3120    0.2480    2.9300 O.2     1  UNL1       -0.1498
     15  C6         3.5150    0.1650    0.6070 C.ar    1  UNL1        0.1843
     16  C7         3.7770    0.9550   -0.4880 C.ar    1  UNL1        0.1907
     17  F1         2.9040    1.9140   -0.9220 F       1  UNL1       -0.2002
     18  C8         4.9710    0.8330   -1.2150 C.ar    1  UNL1        0.1983
     19  F2         5.1970    1.6310   -2.2930 F       1  UNL1       -0.1993
     20  C9         5.9170   -0.0860   -0.8500 C.ar    1  UNL1        0.1992
     21  F3         7.0630   -0.2100   -1.5400 F       1  UNL1       -0.1993
     22  C10        5.6570   -0.8770    0.2450 C.ar    1  UNL1        0.1983
     23  F4         6.6030   -1.7970    0.6120 F       1  UNL1       -0.1993
     24  C11        4.4850   -0.7570    0.9580 C.ar    1  UNL1        0.1907
     25  F5         4.2260   -1.5290    2.0310 F       1  UNL1       -0.2002
     26  C12       -1.6860   -0.5630    0.9460 C.ar    1  UNL1       -0.0169
     27 H          -7.0211    0.0001   -1.3859 H       1  UNL1        0.1456
     28 H          -5.7289    1.0271   -1.1626 H       1  UNL1        0.1456
     29 H          -4.3223   -0.5476    1.8888 H       1  UNL1        0.1747
     30 H          -3.7375    1.0653   -1.0638 H       1  UNL1        0.0636
     31 H          -1.6502    1.8124   -1.9967 H       1  UNL1        0.0619
     32 H           0.4009    1.0262   -1.0324 H       1  UNL1        0.0636
     33 H           0.8327   -1.6178    1.2209 H       1  UNL1        0.1737
     34 H          -1.7068   -1.2103    1.7495 H       1  UNL1        0.0655
@<TRIPOS>BOND
     1     1     2    1
     2     2     3    2
     3     2     4    2
     4     2     5    1
     5     5     6    1
     6     6     7   ar
     7     6    26   ar
     8     7     8   ar
     9     8     9   ar
    10     9    10   ar
    11    10    11    1
    12    10    26   ar
    13    11    12    1
    14    12    13    2
    15    12    14    2
    16    12    15    1
    17    15    16   ar
    18    15    24   ar
    19    16    17    1
    20    16    18   ar
    21    18    19    1
    22    18    20   ar
    23    20    21    1
    24    20    22   ar
    25    22    23    1
    26    22    24   ar
    27    24    25    1
    28     1    27    1
    29     1    28    1
    30     5    29    1
    31     7    30    1
    32     8    31    1
    33     9    32    1
    34    11    33    1
    35    26    34    1
@<TRIPOS>MOLECULE
../data/bude_mols_rdkit_confs2/molecule_91.pdb
 34 35 0 0 0
SMALL
GASTEIGER

@<TRIPOS>ATOM
      1  N1        -5.5800    0.9510   -0.4870 N.3     1  UNL1       -0.1906
      2  S1        -4.6290    1.4170    0.9030 S.O2    1  UNL1        0.1067
      3  O1        -4.9260    0.4450    1.9840 O.2     1  UNL1       -0.1383
      4  O2        -5.0750    2.7980    1.2870 O.2     1  UNL1       -0.1383
      5  N2        -2.9880    1.4750    0.4500 N.pl3   1  UNL1       -0.2067
      6  C1        -2.1440    0.3230    0.5630 C.ar    1  UNL1        0.0508
      7  C2        -2.1270   -0.4690    1.6690 C.ar    1  UNL1       -0.0392
      8  C3        -1.2840   -1.5700    1.7140 C.ar    1  UNL1       -0.0582
      9  C4        -0.4640   -1.8640    0.6440 C.ar    1  UNL1       -0.0392
     10  C5        -0.4520   -1.0860   -0.4950 C.ar    1  UNL1        0.0498
     11  N3         0.3950   -1.4040   -1.5890 N.pl3   1  UNL1       -0.2160
     12  S2         2.0500   -1.8320   -1.4510 S.O2    1  UNL1        0.0780
     13  O3         2.2310   -3.0970   -0.6470 O.2     1  UNL1       -0.1498
     14  O4         2.6080   -2.1110   -2.8120 O.2     1  UNL1       -0.1498
     15  C6         2.9770   -0.5330   -0.7500 C.ar    1  UNL1        0.1843
     16  C7         3.1440   -0.4920    0.6140 C.ar    1  UNL1        0.1907
     17  F1         2.6020   -1.4450    1.4020 F       1  UNL1       -0.2002
     18  C8         3.8870    0.5570    1.1590 C.ar    1  UNL1        0.1983
     19  F2         4.0410    0.5830    2.5100 F       1  UNL1       -0.1993
     20  C9         4.4260    1.5070    0.3410 C.ar    1  UNL1        0.1992
     21  F3         5.1460    2.5240    0.8590 F       1  UNL1       -0.1993
     22  C10        4.2710    1.4850   -1.0430 C.ar    1  UNL1        0.1983
     23  F4         4.8130    2.4320   -1.8200 F       1  UNL1       -0.1993
     24  C11        3.5290    0.4320   -1.5530 C.ar    1  UNL1        0.1907
     25  F5         3.3400    0.3500   -2.8840 F       1  UNL1       -0.2002
     26  C12       -1.3030    0.0010   -0.5060 C.ar    1  UNL1       -0.0169
     27 H          -6.5657    0.9129   -0.2273 H       1  UNL1        0.1456
     28 H          -5.2785    0.0327   -0.8128 H       1  UNL1        0.1456
     29 H          -2.6123    2.3166    0.1038 H       1  UNL1        0.1747
     30 H          -2.7387   -0.2517    2.4713 H       1  UNL1        0.0636
     31 H          -1.2702   -2.1721    2.5520 H       1  UNL1        0.0619
     32 H           0.1563   -2.6871    0.6972 H       1  UNL1        0.0636
     33 H           0.0041   -1.3769   -2.4922 H       1  UNL1        0.1737
     34 H          -1.3190    0.6044   -1.3431 H       1  UNL1        0.0655
@<TRIPOS>BOND
     1     1     2    1
     2     2     3    2
     3     2     4    2
     4     2     5    1
     5     5     6    1
     6     6     7   ar
     7     6    26   ar
     8     7     8   ar
     9     8     9   ar
    10     9    10   ar
    11    10    11    1
    12    10    26   ar
    13    11    12    1
    14    12    13    2
    15    12    14    2
    16    12    15    1
    17    15    16   ar
    18    15    24   ar
    19    16    17    1
    20    16    18   ar
    21    18    19    1
    22    18    20   ar
    23    20    21    1
    24    20    22   ar
    25    22    23    1
    26    22    24   ar
    27    24    25    1
    28     1    27    1
    29     1    28    1
    30     5    29    1
    31     7    30    1
    32     8    31    1
    33     9    32    1
    34    11    33    1
    35    26    34    1
@<TRIPOS>MOLECULE
../data/bude_mols_rdkit_confs2/molecule_91.pdb
 34 35 0 0 0
SMALL
GASTEIGER

@<TRIPOS>ATOM
      1  N1        -3.9780    2.5560    1.0420 N.3     1  UNL1       -0.1906
      2  S1        -4.4720    1.3610   -0.0900 S.O2    1  UNL1        0.1067
      3  O1        -5.4430    0.3790    0.4940 O.2     1  UNL1       -0.1383
      4  O2        -5.2200    2.0750   -1.2070 O.2     1  UNL1       -0.1383
      5  N2        -3.1010    0.6040   -0.8120 N.pl3   1  UNL1       -0.2067
      6  C1        -2.4820   -0.5720   -0.2500 C.ar    1  UNL1        0.0508
      7  C2        -3.2300   -1.6390    0.1830 C.ar    1  UNL1       -0.0392
      8  C3        -2.6060   -2.7510    0.7140 C.ar    1  UNL1       -0.0582
      9  C4        -1.2350   -2.7950    0.8130 C.ar    1  UNL1       -0.0392
     10  C5        -0.4440   -1.7180    0.3780 C.ar    1  UNL1        0.0498
     11  N3         0.9780   -1.8020    0.4950 N.pl3   1  UNL1       -0.2160
     12  S2         2.0420   -1.3610   -0.7760 S.O2    1  UNL1        0.0780
     13  O3         2.9730   -2.5250   -1.0880 O.2     1  UNL1       -0.1498
     14  O4         1.2500   -1.0270   -2.0170 O.2     1  UNL1       -0.1498
     15  C6         3.0360    0.0220   -0.4000 C.ar    1  UNL1        0.1843
     16  C7         4.2460   -0.1810    0.2800 C.ar    1  UNL1        0.1907
     17  F1         4.6310   -1.4390    0.6480 F       1  UNL1       -0.2002
     18  C8         5.0970    0.8470    0.6080 C.ar    1  UNL1        0.1983
     19  F2         6.2560    0.6270    1.2630 F       1  UNL1       -0.1993
     20  C9         4.7310    2.1190    0.2480 C.ar    1  UNL1        0.1992
     21  F3         5.5290    3.1930    0.5420 F       1  UNL1       -0.1993
     22  C10        3.5450    2.3730   -0.4250 C.ar    1  UNL1        0.1983
     23  F4         3.2050    3.6200   -0.7680 F       1  UNL1       -0.1993
     24  C11        2.6980    1.3090   -0.7470 C.ar    1  UNL1        0.1907
     25  F5         1.5500    1.5620   -1.4130 F       1  UNL1       -0.2002
     26  C12       -1.0990   -0.6450   -0.1380 C.ar    1  UNL1       -0.0169
     27 H          -4.8013    2.9916    1.4576 H       1  UNL1        0.1456
     28 H          -3.4215    3.2659    0.5659 H       1  UNL1        0.1456
     29 H          -2.7270    0.9882   -1.6377 H       1  UNL1        0.1747
     30 H          -4.2591   -1.6101    0.1116 H       1  UNL1        0.0636
     31 H          -3.1707   -3.5518    1.0377 H       1  UNL1        0.0619
     32 H          -0.7805   -3.6310    1.2125 H       1  UNL1        0.0636
     33 H           1.3631   -2.1267    1.3409 H       1  UNL1        0.1737
     34 H          -0.5394    0.1585   -0.4641 H       1  UNL1        0.0655
@<TRIPOS>BOND
     1     1     2    1
     2     2     3    2
     3     2     4    2
     4     2     5    1
     5     5     6    1
     6     6     7   ar
     7     6    26   ar
     8     7     8   ar
     9     8     9   ar
    10     9    10   ar
    11    10    11    1
    12    10    26   ar
    13    11    12    1
    14    12    13    2
    15    12    14    2
    16    12    15    1
    17    15    16   ar
    18    15    24   ar
    19    16    17    1
    20    16    18   ar
    21    18    19    1
    22    18    20   ar
    23    20    21    1
    24    20    22   ar
    25    22    23    1
    26    22    24   ar
    27    24    25    1
    28     1    27    1
    29     1    28    1
    30     5    29    1
    31     7    30    1
    32     8    31    1
    33     9    32    1
    34    11    33    1
    35    26    34    1
@<TRIPOS>MOLECULE
../data/bude_mols_rdkit_confs2/molecule_91.pdb
 34 35 0 0 0
SMALL
GASTEIGER

@<TRIPOS>ATOM
      1  N1         5.3400    1.4790    1.2040 N.3     1  UNL1       -0.1906
      2  S1         4.9710    0.4240   -0.1200 S.O2    1  UNL1        0.1067
      3  O1         4.2400    1.1840   -1.1610 O.2     1  UNL1       -0.1383
      4  O2         6.2870   -0.0500   -0.6950 O.2     1  UNL1       -0.1383
      5  N2         4.0330   -0.9100    0.3950 N.pl3   1  UNL1       -0.2067
      6  C1         2.6110   -0.9280    0.4170 C.ar    1  UNL1        0.0508
      7  C2         1.9770   -1.4120    1.5560 C.ar    1  UNL1       -0.0392
      8  C3         0.6040   -1.4220    1.5690 C.ar    1  UNL1       -0.0582
      9  C4        -0.1760   -0.9730    0.5050 C.ar    1  UNL1       -0.0392
     10  C5         0.4450   -0.4940   -0.6210 C.ar    1  UNL1        0.0498
     11  N3        -0.2010   -0.0170   -1.7810 N.pl3   1  UNL1       -0.2160
     12  S2        -1.4730    1.0990   -1.8770 S.O2    1  UNL1        0.0780
     13  O3        -1.7990    1.3580   -3.3460 O.2     1  UNL1       -0.1498
     14  O4        -0.9990    2.3830   -1.2360 O.2     1  UNL1       -0.1498
     15  C6        -2.9420    0.6550   -1.1110 C.ar    1  UNL1        0.1843
     16  C7        -3.1880    1.0360    0.1870 C.ar    1  UNL1        0.1907
     17  F1        -2.3300    1.7630    0.9400 F       1  UNL1       -0.2002
     18  C8        -4.3870    0.6680    0.7980 C.ar    1  UNL1        0.1983
     19  F2        -4.6420    1.0320    2.0650 F       1  UNL1       -0.1993
     20  C9        -5.3420   -0.0780    0.1230 C.ar    1  UNL1        0.1992
     21  F3        -6.5040   -0.4190    0.7550 F       1  UNL1       -0.1993
     22  C10       -5.0840   -0.4510   -1.1720 C.ar    1  UNL1        0.1983
     23  F4        -6.0080   -1.1860   -1.8590 F       1  UNL1       -0.1993
     24  C11       -3.8810   -0.0850   -1.7930 C.ar    1  UNL1        0.1907
     25  F5        -3.7240   -0.5040   -3.0710 F       1  UNL1       -0.2002
     26  C12        1.8420   -0.4890   -0.6250 C.ar    1  UNL1       -0.0169
     27 H           5.8987    2.2635    0.8681 H       1  UNL1        0.1456
     28 H           5.8655    0.9656    1.9116 H       1  UNL1        0.1456
     29 H           4.5082   -1.7180    0.6958 H       1  UNL1        0.1747
     30 H           2.5203   -1.7524    2.3647 H       1  UNL1        0.0636
     31 H           0.1251   -1.7804    2.4099 H       1  UNL1        0.0619
     32 H          -1.2060   -1.0004    0.5631 H       1  UNL1        0.0636
     33 H           0.1264   -0.3754   -2.6375 H       1  UNL1        0.1737
     34 H           2.3229   -0.1323   -1.4655 H       1  UNL1        0.0655
@<TRIPOS>BOND
     1     1     2    1
     2     2     3    2
     3     2     4    2
     4     2     5    1
     5     5     6    1
     6     6     7   ar
     7     6    26   ar
     8     7     8   ar
     9     8     9   ar
    10     9    10   ar
    11    10    11    1
    12    10    26   ar
    13    11    12    1
    14    12    13    2
    15    12    14    2
    16    12    15    1
    17    15    16   ar
    18    15    24   ar
    19    16    17    1
    20    16    18   ar
    21    18    19    1
    22    18    20   ar
    23    20    21    1
    24    20    22   ar
    25    22    23    1
    26    22    24   ar
    27    24    25    1
    28     1    27    1
    29     1    28    1
    30     5    29    1
    31     7    30    1
    32     8    31    1
    33     9    32    1
    34    11    33    1
    35    26    34    1
@<TRIPOS>MOLECULE
../data/bude_mols_rdkit_confs2/molecule_91.pdb
 34 35 0 0 0
SMALL
GASTEIGER

@<TRIPOS>ATOM
      1  N1         5.0690   -0.2020    2.3360 N.3     1  UNL1       -0.1906
      2  S1         4.9550    0.3410    0.6910 S.O2    1  UNL1        0.1067
      3  O1         4.3480    1.7000    0.6570 O.2     1  UNL1       -0.1383
      4  O2         6.3790    0.4550    0.1820 O.2     1  UNL1       -0.1383
      5  N2         4.0960   -0.7760   -0.2890 N.pl3   1  UNL1       -0.2067
      6  C1         2.6840   -0.7260   -0.4800 C.ar    1  UNL1        0.0508
      7  C2         2.1500   -0.8760   -1.7570 C.ar    1  UNL1       -0.0392
      8  C3         0.7920   -0.8320   -1.9750 C.ar    1  UNL1       -0.0582
      9  C4        -0.0990   -0.6370   -0.9360 C.ar    1  UNL1       -0.0392
     10  C5         0.4150   -0.4860    0.3320 C.ar    1  UNL1        0.0498
     11  N3        -0.4640   -0.3080    1.4270 N.pl3   1  UNL1       -0.2160
     12  S2        -1.6870    0.8600    1.5530 S.O2    1  UNL1        0.0780
     13  O3        -1.0000    2.2210    1.4680 O.2     1  UNL1       -0.1498
     14  O4        -2.3690    0.7790    2.9070 O.2     1  UNL1       -0.1498
     15  C6        -2.9440    0.7680    0.3550 C.ar    1  UNL1        0.1843
     16  C7        -2.9300    1.5210   -0.8100 C.ar    1  UNL1        0.1907
     17  F1        -1.9090    2.3660   -1.0420 F       1  UNL1       -0.2002
     18  C8        -3.9340    1.4380   -1.7510 C.ar    1  UNL1        0.1983
     19  F2        -3.9030    2.1870   -2.8910 F       1  UNL1       -0.1993
     20  C9        -5.0020    0.5940   -1.5720 C.ar    1  UNL1        0.1992
     21  F3        -6.0060    0.4840   -2.4730 F       1  UNL1       -0.1993
     22  C10       -5.0410   -0.1630   -0.4280 C.ar    1  UNL1        0.1983
     23  F4        -6.0900   -1.0050   -0.2300 F       1  UNL1       -0.1993
     24  C11       -4.0390   -0.0830    0.5160 C.ar    1  UNL1        0.1907
     25  F5        -4.0890   -0.8380    1.6460 F       1  UNL1       -0.2002
     26  C12        1.8020   -0.5310    0.5520 C.ar    1  UNL1       -0.0169
     27 H           5.5843    0.4853    2.8860 H       1  UNL1        0.1456
     28 H           5.5578   -1.0967    2.3656 H       1  UNL1        0.1456
     29 H           4.6040   -1.4872   -0.7422 H       1  UNL1        0.1747
     30 H           2.7857   -1.0232   -2.5565 H       1  UNL1        0.0636
     31 H           0.4308   -0.9471   -2.9349 H       1  UNL1        0.0619
     32 H          -1.1165   -0.6057   -1.1056 H       1  UNL1        0.0636
     33 H          -0.3548   -0.9216    2.1891 H       1  UNL1        0.1737
     34 H           2.1650   -0.4148    1.5110 H       1  UNL1        0.0655
@<TRIPOS>BOND
     1     1     2    1
     2     2     3    2
     3     2     4    2
     4     2     5    1
     5     5     6    1
     6     6     7   ar
     7     6    26   ar
     8     7     8   ar
     9     8     9   ar
    10     9    10   ar
    11    10    11    1
    12    10    26   ar
    13    11    12    1
    14    12    13    2
    15    12    14    2
    16    12    15    1
    17    15    16   ar
    18    15    24   ar
    19    16    17    1
    20    16    18   ar
    21    18    19    1
    22    18    20   ar
    23    20    21    1
    24    20    22   ar
    25    22    23    1
    26    22    24   ar
    27    24    25    1
    28     1    27    1
    29     1    28    1
    30     5    29    1
    31     7    30    1
    32     8    31    1
    33     9    32    1
    34    11    33    1
    35    26    34    1
@<TRIPOS>MOLECULE
../data/bude_mols_rdkit_confs2/molecule_91.pdb
 34 35 0 0 0
SMALL
GASTEIGER

@<TRIPOS>ATOM
      1  N1        -2.7250    3.3570   -0.2930 N.3     1  UNL1       -0.1906
      2  S1        -3.8910    2.0660   -0.1800 S.O2    1  UNL1        0.1067
      3  O1        -4.0100    1.6170    1.2420 O.2     1  UNL1       -0.1383
      4  O2        -5.2410    2.5590   -0.6080 O.2     1  UNL1       -0.1383
      5  N2        -3.3310    0.7900   -1.1500 N.pl3   1  UNL1       -0.2067
      6  C1        -2.5070   -0.2350   -0.6060 C.ar    1  UNL1        0.0508
      7  C2        -2.8020   -0.8880    0.5700 C.ar    1  UNL1       -0.0392
      8  C3        -1.9530   -1.8940    1.0450 C.ar    1  UNL1       -0.0582
      9  C4        -0.8100   -2.2710    0.3770 C.ar    1  UNL1       -0.0392
     10  C5        -0.5070   -1.6240   -0.7990 C.ar    1  UNL1        0.0498
     11  N3         0.6670   -1.9760   -1.5500 N.pl3   1  UNL1       -0.2160
     12  S2         2.1820   -2.1580   -0.8040 S.O2    1  UNL1        0.0780
     13  O3         2.1110   -3.2130    0.2530 O.2     1  UNL1       -0.1498
     14  O4         3.1920   -2.6470   -1.8210 O.2     1  UNL1       -0.1498
     15  C6         2.7660   -0.6940   -0.0370 C.ar    1  UNL1        0.1843
     16  C7         3.5070    0.2430   -0.7350 C.ar    1  UNL1        0.1907
     17  F1         3.7670   -0.0020   -2.0450 F       1  UNL1       -0.2002
     18  C8         3.9710    1.3860   -0.1360 C.ar    1  UNL1        0.1983
     19  F2         4.7060    2.3160   -0.8280 F       1  UNL1       -0.1993
     20  C9         3.6810    1.5910    1.1960 C.ar    1  UNL1        0.1992
     21  F3         4.1300    2.7140    1.8060 F       1  UNL1       -0.1993
     22  C10        2.9470    0.6800    1.9190 C.ar    1  UNL1        0.1983
     23  F4         2.6470    0.8530    3.2270 F       1  UNL1       -0.1993
     24  C11        2.4880   -0.4770    1.2810 C.ar    1  UNL1        0.1907
     25  F5         1.7640   -1.3830    2.0060 F       1  UNL1       -0.2002
     26  C12       -1.3430   -0.6380   -1.2590 C.ar    1  UNL1       -0.0169
     27 H          -3.0315    4.1431    0.2802 H       1  UNL1        0.1456
     28 H          -2.6424    3.6565   -1.2645 H       1  UNL1        0.1456
     29 H          -3.5797    0.7587   -2.1020 H       1  UNL1        0.1747
     30 H          -3.6498   -0.6353    1.1014 H       1  UNL1        0.0636
     31 H          -2.1926   -2.3707    1.9284 H       1  UNL1        0.0619
     32 H          -0.1991   -3.0160    0.7468 H       1  UNL1        0.0636
     33 H           0.5910   -2.1152   -2.5216 H       1  UNL1        0.1737
     34 H          -1.0950   -0.1658   -2.1425 H       1  UNL1        0.0655
@<TRIPOS>BOND
     1     1     2    1
     2     2     3    2
     3     2     4    2
     4     2     5    1
     5     5     6    1
     6     6     7   ar
     7     6    26   ar
     8     7     8   ar
     9     8     9   ar
    10     9    10   ar
    11    10    11    1
    12    10    26   ar
    13    11    12    1
    14    12    13    2
    15    12    14    2
    16    12    15    1
    17    15    16   ar
    18    15    24   ar
    19    16    17    1
    20    16    18   ar
    21    18    19    1
    22    18    20   ar
    23    20    21    1
    24    20    22   ar
    25    22    23    1
    26    22    24   ar
    27    24    25    1
    28     1    27    1
    29     1    28    1
    30     5    29    1
    31     7    30    1
    32     8    31    1
    33     9    32    1
    34    11    33    1
    35    26    34    1
@<TRIPOS>MOLECULE
../data/bude_mols_rdkit_confs2/molecule_91.pdb
 34 35 0 0 0
SMALL
GASTEIGER

@<TRIPOS>ATOM
      1  N1        -5.2070    1.9550   -0.7040 N.3     1  UNL1       -0.1906
      2  S1        -4.5510    1.4780    0.7950 S.O2    1  UNL1        0.1067
      3  O1        -5.0120    0.0640    1.0610 O.2     1  UNL1       -0.1383
      4  O2        -5.0440    2.3960    1.8800 O.2     1  UNL1       -0.1383
      5  N2        -2.8360    1.5370    0.8240 N.pl3   1  UNL1       -0.2067
      6  C1        -2.1150    0.3740    0.4390 C.ar    1  UNL1        0.0508
      7  C2        -2.4830   -0.3480   -0.7010 C.ar    1  UNL1       -0.0392
      8  C3        -1.7960   -1.4750   -1.0860 C.ar    1  UNL1       -0.0582
      9  C4        -0.7280   -1.8730   -0.3100 C.ar    1  UNL1       -0.0392
     10  C5        -0.3180   -1.2040    0.8240 C.ar    1  UNL1        0.0498
     11  N3         0.7900   -1.6330    1.6250 N.pl3   1  UNL1       -0.2160
     12  S2         2.2620   -2.0750    0.8660 S.O2    1  UNL1        0.0780
     13  O3         2.0240   -3.2040   -0.0950 O.2     1  UNL1       -0.1498
     14  O4         3.1910   -2.6200    1.9190 O.2     1  UNL1       -0.1498
     15  C6         2.9960   -0.7740   -0.0260 C.ar    1  UNL1        0.1843
     16  C7         2.7410   -0.5520   -1.3480 C.ar    1  UNL1        0.1907
     17  F1         1.8960   -1.3510   -2.0410 F       1  UNL1       -0.2002
     18  C8         3.3850    0.5230   -1.9580 C.ar    1  UNL1        0.1983
     19  F2         3.1550    0.7730   -3.2670 F       1  UNL1       -0.1993
     20  C9         4.2510    1.3460   -1.2710 C.ar    1  UNL1        0.1992
     21  F3         4.8740    2.4000   -1.8930 F       1  UNL1       -0.1993
     22  C10        4.5000    1.1110    0.0640 C.ar    1  UNL1        0.1983
     23  F4         5.3550    1.9420    0.6990 F       1  UNL1       -0.1993
     24  C11        3.8730    0.0590    0.6700 C.ar    1  UNL1        0.1907
     25  F5         4.1230   -0.1630    1.9780 F       1  UNL1       -0.2002
     26  C12       -1.0390   -0.0730    1.1750 C.ar    1  UNL1       -0.0169
     27 H          -6.2247    1.9003   -0.6626 H       1  UNL1        0.1456
     28 H          -4.8628    1.3361   -1.4381 H       1  UNL1        0.1456
     29 H          -2.3636    2.3554    1.1002 H       1  UNL1        0.1747
     30 H          -3.2863   -0.0284   -1.2645 H       1  UNL1        0.0636
     31 H          -2.0705   -2.0053   -1.9277 H       1  UNL1        0.0619
     32 H          -0.2071   -2.7176   -0.5933 H       1  UNL1        0.0636
     33 H           0.7063   -1.6736    2.6051 H       1  UNL1        0.1737
     34 H          -0.7599    0.4531    2.0178 H       1  UNL1        0.0655
@<TRIPOS>BOND
     1     1     2    1
     2     2     3    2
     3     2     4    2
     4     2     5    1
     5     5     6    1
     6     6     7   ar
     7     6    26   ar
     8     7     8   ar
     9     8     9   ar
    10     9    10   ar
    11    10    11    1
    12    10    26   ar
    13    11    12    1
    14    12    13    2
    15    12    14    2
    16    12    15    1
    17    15    16   ar
    18    15    24   ar
    19    16    17    1
    20    16    18   ar
    21    18    19    1
    22    18    20   ar
    23    20    21    1
    24    20    22   ar
    25    22    23    1
    26    22    24   ar
    27    24    25    1
    28     1    27    1
    29     1    28    1
    30     5    29    1
    31     7    30    1
    32     8    31    1
    33     9    32    1
    34    11    33    1
    35    26    34    1
@<TRIPOS>MOLECULE
../data/bude_mols_rdkit_confs2/molecule_91.pdb
 34 35 0 0 0
SMALL
GASTEIGER

@<TRIPOS>ATOM
      1  N1        -4.8720   -0.2710   -2.0910 N.3     1  UNL1       -0.1906
      2  S1        -3.4600   -1.1800   -1.6930 S.O2    1  UNL1        0.1067
      3  O1        -3.6630   -2.6430   -1.9100 O.2     1  UNL1       -0.1383
      4  O2        -2.3280   -0.6640   -2.5360 O.2     1  UNL1       -0.1383
      5  N2        -3.0750   -0.9400   -0.0290 N.pl3   1  UNL1       -0.2067
      6  C1        -2.2180    0.1210    0.3090 C.ar    1  UNL1        0.0508
      7  C2        -2.4050    1.3630   -0.2650 C.ar    1  UNL1       -0.0392
      8  C3        -1.5680    2.4140    0.0590 C.ar    1  UNL1       -0.0582
      9  C4        -0.5310    2.2060    0.9720 C.ar    1  UNL1       -0.0392
     10  C5        -0.3290    0.9720    1.5550 C.ar    1  UNL1        0.0498
     11  N3         0.7320    0.7510    2.4920 N.pl3   1  UNL1       -0.2160
     12  S2         1.7770   -0.6090    2.4340 S.O2    1  UNL1        0.0780
     13  O3         0.9760   -1.8750    2.5630 O.2     1  UNL1       -0.1498
     14  O4         2.7930   -0.4910    3.5270 O.2     1  UNL1       -0.1498
     15  C6         2.6360   -0.5560    0.9100 C.ar    1  UNL1        0.1843
     16  C7         3.8380    0.1460    0.8550 C.ar    1  UNL1        0.1907
     17  F1         4.2820    0.7540    1.9810 F       1  UNL1       -0.2002
     18  C8         4.5740    0.2290   -0.3130 C.ar    1  UNL1        0.1983
     19  F2         5.7250    0.9300   -0.2700 F       1  UNL1       -0.1993
     20  C9         4.0980   -0.3980   -1.4350 C.ar    1  UNL1        0.1992
     21  F3         4.8260   -0.3150   -2.5890 F       1  UNL1       -0.1993
     22  C10        2.9120   -1.1020   -1.4240 C.ar    1  UNL1        0.1983
     23  F4         2.4290   -1.7260   -2.5210 F       1  UNL1       -0.1993
     24  C11        2.1800   -1.1780   -0.2360 C.ar    1  UNL1        0.1907
     25  F5         1.0350   -1.8590   -0.2140 F       1  UNL1       -0.2002
     26  C12       -1.1710   -0.0630    1.2220 C.ar    1  UNL1       -0.0169
     27 H          -5.1010   -0.4120   -3.0749 H       1  UNL1        0.1456
     28 H          -4.6978    0.7195   -1.9210 H       1  UNL1        0.1456
     29 H          -3.4459   -1.5308    0.6657 H       1  UNL1        0.1747
     30 H          -3.1732    1.5070   -0.9389 H       1  UNL1        0.0636
     31 H          -1.7075    3.3427   -0.3689 H       1  UNL1        0.0619
     32 H           0.0952    2.9896    1.2147 H       1  UNL1        0.0636
     33 H           0.8688    1.4142    3.2067 H       1  UNL1        0.1737
     34 H          -1.0295   -0.9906    1.6516 H       1  UNL1        0.0655
@<TRIPOS>BOND
     1     1     2    1
     2     2     3    2
     3     2     4    2
     4     2     5    1
     5     5     6    1
     6     6     7   ar
     7     6    26   ar
     8     7     8   ar
     9     8     9   ar
    10     9    10   ar
    11    10    11    1
    12    10    26   ar
    13    11    12    1
    14    12    13    2
    15    12    14    2
    16    12    15    1
    17    15    16   ar
    18    15    24   ar
    19    16    17    1
    20    16    18   ar
    21    18    19    1
    22    18    20   ar
    23    20    21    1
    24    20    22   ar
    25    22    23    1
    26    22    24   ar
    27    24    25    1
    28     1    27    1
    29     1    28    1
    30     5    29    1
    31     7    30    1
    32     8    31    1
    33     9    32    1
    34    11    33    1
    35    26    34    1
@<TRIPOS>MOLECULE
../data/bude_mols_rdkit_confs2/molecule_91.pdb
 34 35 0 0 0
SMALL
GASTEIGER

@<TRIPOS>ATOM
      1  N1         5.8260    0.8210    1.0540 N.3     1  UNL1       -0.1906
      2  S1         4.9410    1.3070   -0.3600 S.O2    1  UNL1        0.1067
      3  O1         5.9370    1.8660   -1.3350 O.2     1  UNL1       -0.1383
      4  O2         3.9160    2.3490   -0.0160 O.2     1  UNL1       -0.1383
      5  N2         4.2360   -0.1120   -1.0410 N.pl3   1  UNL1       -0.2067
      6  C1         2.9440   -0.5920   -0.7060 C.ar    1  UNL1        0.0508
      7  C2         2.7040   -1.9260   -0.4410 C.ar    1  UNL1       -0.0392
      8  C3         1.4660   -2.4070   -0.1160 C.ar    1  UNL1       -0.0582
      9  C4         0.4090   -1.5280   -0.0470 C.ar    1  UNL1       -0.0392
     10  C5         0.5770   -0.1820   -0.2990 C.ar    1  UNL1        0.0498
     11  N3        -0.4830    0.7340   -0.2380 N.pl3   1  UNL1       -0.2160
     12  S2        -1.6750    0.8690    0.9760 S.O2    1  UNL1        0.0780
     13  O3        -1.6840    2.2860    1.5320 O.2     1  UNL1       -0.1498
     14  O4        -1.2910   -0.0380    2.1210 O.2     1  UNL1       -0.1498
     15  C6        -3.2550    0.4850    0.3770 C.ar    1  UNL1        0.1843
     16  C7        -4.0520    1.4670   -0.2370 C.ar    1  UNL1        0.1907
     17  F1        -3.5160    2.7120   -0.3420 F       1  UNL1       -0.2002
     18  C8        -5.3070    1.1610   -0.7010 C.ar    1  UNL1        0.1983
     19  F2        -6.0620    2.1290   -1.2920 F       1  UNL1       -0.1993
     20  C9        -5.8070   -0.1200   -0.5700 C.ar    1  UNL1        0.1992
     21  F3        -7.0580   -0.4030   -1.0390 F       1  UNL1       -0.1993
     22  C10       -5.0260   -1.0700    0.0270 C.ar    1  UNL1        0.1983
     23  F4        -5.4900   -2.3240    0.1660 F       1  UNL1       -0.1993
     24  C11       -3.7550   -0.7880    0.5050 C.ar    1  UNL1        0.1907
     25  F5        -3.0490   -1.7590    1.0880 F       1  UNL1       -0.2002
     26  C12        1.8690    0.2610   -0.6290 C.ar    1  UNL1       -0.0169
     27 H           6.2575    1.6396    1.4831 H       1  UNL1        0.1456
     28 H           6.5509    0.1542    0.7889 H       1  UNL1        0.1456
     29 H           4.7615   -0.6189   -1.7014 H       1  UNL1        0.1747
     30 H           3.4935   -2.5887   -0.4904 H       1  UNL1        0.0636
     31 H           1.3265   -3.4117    0.0743 H       1  UNL1        0.0619
     32 H          -0.5284   -1.8831    0.1983 H       1  UNL1        0.0636
     33 H          -0.5471    1.3744   -0.9830 H       1  UNL1        0.1737
     34 H           2.0163    1.2643   -0.8207 H       1  UNL1        0.0655
@<TRIPOS>BOND
     1     1     2    1
     2     2     3    2
     3     2     4    2
     4     2     5    1
     5     5     6    1
     6     6     7   ar
     7     6    26   ar
     8     7     8   ar
     9     8     9   ar
    10     9    10   ar
    11    10    11    1
    12    10    26   ar
    13    11    12    1
    14    12    13    2
    15    12    14    2
    16    12    15    1
    17    15    16   ar
    18    15    24   ar
    19    16    17    1
    20    16    18   ar
    21    18    19    1
    22    18    20   ar
    23    20    21    1
    24    20    22   ar
    25    22    23    1
    26    22    24   ar
    27    24    25    1
    28     1    27    1
    29     1    28    1
    30     5    29    1
    31     7    30    1
    32     8    31    1
    33     9    32    1
    34    11    33    1
    35    26    34    1
@<TRIPOS>MOLECULE
../data/bude_mols_rdkit_confs2/molecule_91.pdb
 34 35 0 0 0
SMALL
GASTEIGER

@<TRIPOS>ATOM
      1  N1        -5.2140    0.9510   -1.6580 N.3     1  UNL1       -0.1906
      2  S1        -4.9560    0.5900    0.0310 S.O2    1  UNL1        0.1067
      3  O1        -4.2490    1.7030    0.7090 O.2     1  UNL1       -0.1383
      4  O2        -6.3400    0.3780    0.6250 O.2     1  UNL1       -0.1383
      5  N2        -4.0860   -0.8980    0.0930 N.pl3   1  UNL1       -0.2067
      6  C1        -2.6660   -0.9730    0.0930 C.ar    1  UNL1        0.0508
      7  C2        -2.0180   -1.8840   -0.7120 C.ar    1  UNL1       -0.0392
      8  C3        -0.6430   -1.9710   -0.7240 C.ar    1  UNL1       -0.0582
      9  C4         0.1380   -1.1320    0.0840 C.ar    1  UNL1       -0.0392
     10  C5        -0.4870   -0.2200    0.8890 C.ar    1  UNL1        0.0498
     11  N3         0.2810    0.6160    1.7320 N.pl3   1  UNL1       -0.2160
     12  S2         1.5400    1.5790    1.1560 S.O2    1  UNL1        0.0780
     13  O3         2.0650    2.3980    2.3350 O.2     1  UNL1       -0.1498
     14  O4         0.9920    2.5910    0.1520 O.2     1  UNL1       -0.1498
     15  C6         2.8740    0.8090    0.4190 C.ar    1  UNL1        0.1843
     16  C7         3.9610    0.2920    1.1030 C.ar    1  UNL1        0.1907
     17  F1         3.9130    0.3960    2.4580 F       1  UNL1       -0.2002
     18  C8         5.0370   -0.2950    0.4950 C.ar    1  UNL1        0.1983
     19  F2         6.0590   -0.7740    1.2510 F       1  UNL1       -0.1993
     20  C9         5.0460   -0.3810   -0.8830 C.ar    1  UNL1        0.1992
     21  F3         6.0920   -0.9540   -1.5120 F       1  UNL1       -0.1993
     22  C10        3.9820    0.1200   -1.6250 C.ar    1  UNL1        0.1983
     23  F4         4.0360    0.0130   -2.9740 F       1  UNL1       -0.1993
     24  C11        2.9320    0.6970   -0.9630 C.ar    1  UNL1        0.1907
     25  F5         1.9100    1.1760   -1.7300 F       1  UNL1       -0.2002
     26  C12       -1.8870   -0.1550    0.8810 C.ar    1  UNL1       -0.0169
     27 H          -5.7280    1.8278   -1.7436 H       1  UNL1        0.1456
     28 H          -5.7514    0.1984   -2.0883 H       1  UNL1        0.1456
     29 H          -4.5984   -1.7378    0.1303 H       1  UNL1        0.1747
     30 H          -2.5716   -2.5116   -1.3160 H       1  UNL1        0.0636
     31 H          -0.1818   -2.6626   -1.3356 H       1  UNL1        0.0619
     32 H           1.1676   -1.2017    0.0713 H       1  UNL1        0.0636
     33 H           0.0724    0.6367    2.6939 H       1  UNL1        0.1737
     34 H          -2.3536    0.5345    1.4909 H       1  UNL1        0.0655
@<TRIPOS>BOND
     1     1     2    1
     2     2     3    2
     3     2     4    2
     4     2     5    1
     5     5     6    1
     6     6     7   ar
     7     6    26   ar
     8     7     8   ar
     9     8     9   ar
    10     9    10   ar
    11    10    11    1
    12    10    26   ar
    13    11    12    1
    14    12    13    2
    15    12    14    2
    16    12    15    1
    17    15    16   ar
    18    15    24   ar
    19    16    17    1
    20    16    18   ar
    21    18    19    1
    22    18    20   ar
    23    20    21    1
    24    20    22   ar
    25    22    23    1
    26    22    24   ar
    27    24    25    1
    28     1    27    1
    29     1    28    1
    30     5    29    1
    31     7    30    1
    32     8    31    1
    33     9    32    1
    34    11    33    1
    35    26    34    1
@<TRIPOS>MOLECULE
../data/bude_mols_rdkit_confs2/molecule_91.pdb
 34 35 0 0 0
SMALL
GASTEIGER

@<TRIPOS>ATOM
      1  N1         2.8330    2.9490   -1.3990 N.3     1  UNL1       -0.1906
      2  S1         2.5240    1.6000   -2.4430 S.O2    1  UNL1        0.1067
      3  O1         3.1420    1.8310   -3.8080 O.2     1  UNL1       -0.1383
      4  O2         1.0400    1.4730   -2.5850 O.2     1  UNL1       -0.1383
      5  N2         3.2270    0.2080   -1.7170 N.pl3   1  UNL1       -0.2067
      6  C1         2.4570   -0.5980   -0.8370 C.ar    1  UNL1        0.0508
      7  C2         3.0430   -0.9660    0.3660 C.ar    1  UNL1       -0.0392
      8  C3         2.3020   -1.7420    1.2270 C.ar    1  UNL1       -0.0582
      9  C4         1.0170   -2.1470    0.9150 C.ar    1  UNL1       -0.0392
     10  C5         0.4170   -1.7940   -0.2710 C.ar    1  UNL1        0.0498
     11  N3        -0.9010   -2.1860   -0.6450 N.pl3   1  UNL1       -0.2160
     12  S2        -2.2500   -2.1090    0.3800 S.O2    1  UNL1        0.0780
     13  O3        -2.1000   -2.9400    1.6220 O.2     1  UNL1       -0.1498
     14  O4        -3.4540   -2.6120   -0.3690 O.2     1  UNL1       -0.1498
     15  C6        -2.5160   -0.4440    0.8370 C.ar    1  UNL1        0.1843
     16  C7        -3.3090    0.3940    0.0890 C.ar    1  UNL1        0.1907
     17  F1        -3.9020   -0.0710   -1.0350 F       1  UNL1       -0.2002
     18  C8        -3.5350    1.7090    0.4310 C.ar    1  UNL1        0.1983
     19  F2        -4.3150    2.5350   -0.3040 F       1  UNL1       -0.1993
     20  C9        -2.9450    2.2020    1.5650 C.ar    1  UNL1        0.1992
     21  F3        -3.1600    3.5010    1.9150 F       1  UNL1       -0.1993
     22  C10       -2.1470    1.3770    2.3270 C.ar    1  UNL1        0.1983
     23  F4        -1.5660    1.8630    3.4430 F       1  UNL1       -0.1993
     24  C11       -1.9210    0.0410    1.9740 C.ar    1  UNL1        0.1907
     25  F5        -1.1210   -0.7010    2.7880 F       1  UNL1       -0.2002
     26  C12        1.1700   -1.0130   -1.1330 C.ar    1  UNL1       -0.0169
     27 H           2.4268    3.7924   -1.8040 H       1  UNL1        0.1456
     28 H           3.8398    3.0735   -1.2933 H       1  UNL1        0.1456
     29 H           4.1624   -0.0298   -1.9114 H       1  UNL1        0.1747
     30 H           4.0013   -0.6679    0.6063 H       1  UNL1        0.0636
     31 H           2.7153   -2.0290    2.1280 H       1  UNL1        0.0619
     32 H           0.4953   -2.7287    1.5891 H       1  UNL1        0.0636
     33 H          -1.0376   -2.5241   -1.5595 H       1  UNL1        0.1737
     34 H           0.7538   -0.7288   -2.0336 H       1  UNL1        0.0655
@<TRIPOS>BOND
     1     1     2    1
     2     2     3    2
     3     2     4    2
     4     2     5    1
     5     5     6    1
     6     6     7   ar
     7     6    26   ar
     8     7     8   ar
     9     8     9   ar
    10     9    10   ar
    11    10    11    1
    12    10    26   ar
    13    11    12    1
    14    12    13    2
    15    12    14    2
    16    12    15    1
    17    15    16   ar
    18    15    24   ar
    19    16    17    1
    20    16    18   ar
    21    18    19    1
    22    18    20   ar
    23    20    21    1
    24    20    22   ar
    25    22    23    1
    26    22    24   ar
    27    24    25    1
    28     1    27    1
    29     1    28    1
    30     5    29    1
    31     7    30    1
    32     8    31    1
    33     9    32    1
    34    11    33    1
    35    26    34    1
@<TRIPOS>MOLECULE
../data/bude_mols_rdkit_confs2/molecule_91.pdb
 34 35 0 0 0
SMALL
GASTEIGER

@<TRIPOS>ATOM
      1  N1         5.5710    1.1410    0.1990 N.3     1  UNL1       -0.1906
      2  S1         3.9850    1.8300    0.3340 S.O2    1  UNL1        0.1067
      3  O1         4.1530    3.3250    0.3420 O.2     1  UNL1       -0.1383
      4  O2         3.3970    1.4590    1.6600 O.2     1  UNL1       -0.1383
      5  N2         2.9510    1.2970   -0.9110 N.pl3   1  UNL1       -0.2067
      6  C1         2.1180    0.1630   -0.7920 C.ar    1  UNL1        0.0508
      7  C2         2.0920   -0.8160   -1.7950 C.ar    1  UNL1       -0.0392
      8  C3         1.2890   -1.9320   -1.6810 C.ar    1  UNL1       -0.0582
      9  C4         0.4950   -2.1000   -0.5680 C.ar    1  UNL1       -0.0392
     10  C5         0.4980   -1.1600    0.4300 C.ar    1  UNL1        0.0498
     11  N3        -0.2730   -1.2410    1.6050 N.pl3   1  UNL1       -0.2160
     12  S2        -1.9310   -1.6810    1.5080 S.O2    1  UNL1        0.0780
     13  O3        -2.4960   -1.7420    2.9130 O.2     1  UNL1       -0.1498
     14  O4        -2.0380   -3.0660    0.9160 O.2     1  UNL1       -0.1498
     15  C6        -2.8670   -0.5460    0.5670 C.ar    1  UNL1        0.1843
     16  C7        -3.0780   -0.6490   -0.7870 C.ar    1  UNL1        0.1907
     17  F1        -2.5440   -1.6830   -1.4470 F       1  UNL1       -0.2002
     18  C8        -3.8360    0.2960   -1.4760 C.ar    1  UNL1        0.1983
     19  F2        -4.0330    0.1750   -2.8180 F       1  UNL1       -0.1993
     20  C9        -4.3790    1.3550   -0.7690 C.ar    1  UNL1        0.1992
     21  F3        -5.1170    2.2800   -1.4270 F       1  UNL1       -0.1993
     22  C10       -4.1890    1.4920    0.5890 C.ar    1  UNL1        0.1983
     23  F4        -4.7520    2.5520    1.2090 F       1  UNL1       -0.1993
     24  C11       -3.4370    0.5400    1.2340 C.ar    1  UNL1        0.1907
     25  F5        -3.2430    0.6660    2.5740 F       1  UNL1       -0.2002
     26  C12        1.3100   -0.0530    0.2930 C.ar    1  UNL1       -0.0169
     27 H           6.1567    1.4842    0.9603 H       1  UNL1        0.1456
     28 H           5.9832    1.4091   -0.6946 H       1  UNL1        0.1456
     29 H           2.9335    1.8044   -1.7545 H       1  UNL1        0.1747
     30 H           2.6835   -0.7000   -2.6327 H       1  UNL1        0.0636
     31 H           1.2832   -2.6416   -2.4303 H       1  UNL1        0.0619
     32 H          -0.1041   -2.9362   -0.4851 H       1  UNL1        0.0636
     33 H           0.1363   -1.0463    2.4790 H       1  UNL1        0.1737
     34 H           1.3086    0.6501    1.0485 H       1  UNL1        0.0655
@<TRIPOS>BOND
     1     1     2    1
     2     2     3    2
     3     2     4    2
     4     2     5    1
     5     5     6    1
     6     6     7   ar
     7     6    26   ar
     8     7     8   ar
     9     8     9   ar
    10     9    10   ar
    11    10    11    1
    12    10    26   ar
    13    11    12    1
    14    12    13    2
    15    12    14    2
    16    12    15    1
    17    15    16   ar
    18    15    24   ar
    19    16    17    1
    20    16    18   ar
    21    18    19    1
    22    18    20   ar
    23    20    21    1
    24    20    22   ar
    25    22    23    1
    26    22    24   ar
    27    24    25    1
    28     1    27    1
    29     1    28    1
    30     5    29    1
    31     7    30    1
    32     8    31    1
    33     9    32    1
    34    11    33    1
    35    26    34    1
@<TRIPOS>MOLECULE
../data/bude_mols_rdkit_confs2/molecule_91.pdb
 34 35 0 0 0
SMALL
GASTEIGER

@<TRIPOS>ATOM
      1  N1         5.3470    0.4680    1.1600 N.3     1  UNL1       -0.1906
      2  S1         4.7760   -0.8280    0.1500 S.O2    1  UNL1        0.1067
      3  O1         5.9700   -1.6120   -0.3450 O.2     1  UNL1       -0.1383
      4  O2         3.9830   -1.7370    1.0350 O.2     1  UNL1       -0.1383
      5  N2         3.9210   -0.2290   -1.1910 N.pl3   1  UNL1       -0.2067
      6  C1         2.5170   -0.0290   -1.1130 C.ar    1  UNL1        0.0508
      7  C2         2.0370    1.1880   -1.6010 C.ar    1  UNL1       -0.0392
      8  C3         0.6920    1.4730   -1.5640 C.ar    1  UNL1       -0.0582
      9  C4        -0.1410    0.4910   -1.0200 C.ar    1  UNL1       -0.0392
     10  C5         0.2920   -0.7010   -0.5360 C.ar    1  UNL1        0.0498
     11  N3        -0.5090   -1.7250   -0.0000 N.pl3   1  UNL1       -0.2160
     12  S2        -1.6350   -1.4440    1.2410 S.O2    1  UNL1        0.0780
     13  O3        -2.2080   -2.7480    1.7640 O.2     1  UNL1       -0.1498
     14  O4        -0.8420   -0.8710    2.4180 O.2     1  UNL1       -0.1498
     15  C6        -2.9080   -0.3440    0.8860 C.ar    1  UNL1        0.1843
     16  C7        -2.8450    1.0110    1.2200 C.ar    1  UNL1        0.1907
     17  F1        -1.7350    1.4930    1.8550 F       1  UNL1       -0.2002
     18  C8        -3.8520    1.8990    0.9430 C.ar    1  UNL1        0.1983
     19  F2        -3.7580    3.2230    1.2860 F       1  UNL1       -0.1993
     20  C9        -4.9740    1.4070    0.3010 C.ar    1  UNL1        0.1992
     21  F3        -5.9710    2.2710    0.0230 F       1  UNL1       -0.1993
     22  C10       -5.0630    0.0650   -0.0430 C.ar    1  UNL1        0.1983
     23  F4        -6.1640   -0.4150   -0.6720 F       1  UNL1       -0.1993
     24  C11       -4.0580   -0.8090    0.2370 C.ar    1  UNL1        0.1907
     25  F5        -4.1110   -2.1300   -0.0860 F       1  UNL1       -0.2002
     26  C12        1.6680   -0.9700   -0.5850 C.ar    1  UNL1       -0.0169
     27 H           5.8553    0.0808    1.9551 H       1  UNL1        0.1456
     28 H           4.5526    1.0120    1.4966 H       1  UNL1        0.1456
     29 H           4.4006   -0.0199   -2.0249 H       1  UNL1        0.1747
     30 H           2.6963    1.8788   -1.9923 H       1  UNL1        0.0636
     31 H           0.3169    2.3662   -1.9197 H       1  UNL1        0.0619
     32 H          -1.1539    0.6855   -0.9839 H       1  UNL1        0.0636
     33 H          -0.4139   -2.6377   -0.3567 H       1  UNL1        0.1737
     34 H           2.0378   -1.8650   -0.2282 H       1  UNL1        0.0655
@<TRIPOS>BOND
     1     1     2    1
     2     2     3    2
     3     2     4    2
     4     2     5    1
     5     5     6    1
     6     6     7   ar
     7     6    26   ar
     8     7     8   ar
     9     8     9   ar
    10     9    10   ar
    11    10    11    1
    12    10    26   ar
    13    11    12    1
    14    12    13    2
    15    12    14    2
    16    12    15    1
    17    15    16   ar
    18    15    24   ar
    19    16    17    1
    20    16    18   ar
    21    18    19    1
    22    18    20   ar
    23    20    21    1
    24    20    22   ar
    25    22    23    1
    26    22    24   ar
    27    24    25    1
    28     1    27    1
    29     1    28    1
    30     5    29    1
    31     7    30    1
    32     8    31    1
    33     9    32    1
    34    11    33    1
    35    26    34    1
@<TRIPOS>MOLECULE
../data/bude_mols_rdkit_confs2/molecule_91.pdb
 34 35 0 0 0
SMALL
GASTEIGER

@<TRIPOS>ATOM
      1  N1         5.2650    1.0590   -1.4680 N.3     1  UNL1       -0.1906
      2  S1         4.5150    1.8310   -0.1210 S.O2    1  UNL1        0.1067
      3  O1         4.9660    3.2600   -0.0950 O.2     1  UNL1       -0.1383
      4  O2         4.9360    1.1910    1.1590 O.2     1  UNL1       -0.1383
      5  N2         2.8010    1.8270   -0.2380 N.pl3   1  UNL1       -0.2067
      6  C1         2.0660    0.7280    0.3210 C.ar    1  UNL1        0.0508
      7  C2         2.5600   -0.5290    0.0510 C.ar    1  UNL1       -0.0392
      8  C3         1.8560   -1.5830    0.5870 C.ar    1  UNL1       -0.0582
      9  C4         0.7200   -1.4120    1.3530 C.ar    1  UNL1       -0.0392
     10  C5         0.2480   -0.1510    1.6080 C.ar    1  UNL1        0.0498
     11  N3        -0.9120    0.0610    2.4010 N.pl3   1  UNL1       -0.2160
     12  S2        -2.3160   -0.8370    2.1090 S.O2    1  UNL1        0.0780
     13  O3        -3.4080   -0.5220    3.1300 O.2     1  UNL1       -0.1498
     14  O4        -2.0160   -2.2940    2.3010 O.2     1  UNL1       -0.1498
     15  C6        -3.0030   -0.6190    0.5320 C.ar    1  UNL1        0.1843
     16  C7        -3.9190    0.3860    0.3160 C.ar    1  UNL1        0.1907
     17  F1        -4.2460    1.1710    1.3530 F       1  UNL1       -0.2002
     18  C8        -4.5040    0.6080   -0.9170 C.ar    1  UNL1        0.1983
     19  F2        -5.4030    1.6130   -1.0780 F       1  UNL1       -0.1993
     20  C9        -4.1270   -0.2330   -1.9460 C.ar    1  UNL1        0.1992
     21  F3        -4.6710   -0.0570   -3.1720 F       1  UNL1       -0.1993
     22  C10       -3.2140   -1.2530   -1.7790 C.ar    1  UNL1        0.1983
     23  F4        -2.8850   -2.0470   -2.8300 F       1  UNL1       -0.1993
     24  C11       -2.6470   -1.4420   -0.5130 C.ar    1  UNL1        0.1907
     25  F5        -1.7540   -2.4490   -0.3590 F       1  UNL1       -0.2002
     26  C12        0.9390    0.9310    1.0790 C.ar    1  UNL1       -0.0169
     27 H           6.2783    1.0859   -1.3544 H       1  UNL1        0.1456
     28 H           5.0060    1.5455   -2.3263 H       1  UNL1        0.1456
     29 H           2.3294    2.5682   -0.6823 H       1  UNL1        0.1747
     30 H           3.4080   -0.6720   -0.5195 H       1  UNL1        0.0636
     31 H           2.1916   -2.5425    0.4088 H       1  UNL1        0.0619
     32 H           0.2261   -2.2343    1.7337 H       1  UNL1        0.0636
     33 H          -0.8987    0.7316    3.1216 H       1  UNL1        0.1737
     34 H           0.6045    1.8911    1.2561 H       1  UNL1        0.0655
@<TRIPOS>BOND
     1     1     2    1
     2     2     3    2
     3     2     4    2
     4     2     5    1
     5     5     6    1
     6     6     7   ar
     7     6    26   ar
     8     7     8   ar
     9     8     9   ar
    10     9    10   ar
    11    10    11    1
    12    10    26   ar
    13    11    12    1
    14    12    13    2
    15    12    14    2
    16    12    15    1
    17    15    16   ar
    18    15    24   ar
    19    16    17    1
    20    16    18   ar
    21    18    19    1
    22    18    20   ar
    23    20    21    1
    24    20    22   ar
    25    22    23    1
    26    22    24   ar
    27    24    25    1
    28     1    27    1
    29     1    28    1
    30     5    29    1
    31     7    30    1
    32     8    31    1
    33     9    32    1
    34    11    33    1
    35    26    34    1
@<TRIPOS>MOLECULE
../data/bude_mols_rdkit_confs2/molecule_91.pdb
 34 35 0 0 0
SMALL
GASTEIGER

@<TRIPOS>ATOM
      1  N1         5.1170   -1.5760   -0.9130 N.3     1  UNL1       -0.1906
      2  S1         5.1490    0.1370   -0.6790 S.O2    1  UNL1        0.1067
      3  O1         4.5080    0.7560   -1.8890 O.2     1  UNL1       -0.1383
      4  O2         6.5870    0.5760   -0.5710 O.2     1  UNL1       -0.1383
      5  N2         4.3550    0.5390    0.7680 N.pl3   1  UNL1       -0.2067
      6  C1         2.9680    0.8300    0.8810 C.ar    1  UNL1        0.0508
      7  C2         2.5820    1.9200    1.6360 C.ar    1  UNL1       -0.0392
      8  C3         1.2260    2.2280    1.7630 C.ar    1  UNL1       -0.0582
      9  C4         0.2870    1.4380    1.1330 C.ar    1  UNL1       -0.0392
     10  C5         0.6290    0.3510    0.3770 C.ar    1  UNL1        0.0498
     11  N3        -0.3140   -0.4810   -0.2820 N.pl3   1  UNL1       -0.2160
     12  S2        -1.6450    0.0520   -1.2000 S.O2    1  UNL1        0.0780
     13  O3        -1.5960    1.5260   -1.4840 O.2     1  UNL1       -0.1498
     14  O4        -1.6100   -0.6790   -2.5240 O.2     1  UNL1       -0.1498
     15  C6        -3.1620   -0.3700   -0.4340 C.ar    1  UNL1        0.1843
     16  C7        -3.8410    0.4670    0.4220 C.ar    1  UNL1        0.1907
     17  F1        -3.3440    1.6930    0.6920 F       1  UNL1       -0.2002
     18  C8        -5.0440    0.0590    1.0070 C.ar    1  UNL1        0.1983
     19  F2        -5.6510    0.9350    1.8360 F       1  UNL1       -0.1993
     20  C9        -5.5350   -1.1890    0.7130 C.ar    1  UNL1        0.1992
     21  F3        -6.6940   -1.5910    1.2720 F       1  UNL1       -0.1993
     22  C10       -4.8620   -2.0510   -0.1520 C.ar    1  UNL1        0.1983
     23  F4        -5.4000   -3.2650   -0.4000 F       1  UNL1       -0.1993
     24  C11       -3.6870   -1.6140   -0.7050 C.ar    1  UNL1        0.1907
     25  F5        -3.0290   -2.4620   -1.5530 F       1  UNL1       -0.2002
     26  C12        1.9920    0.0850    0.2810 C.ar    1  UNL1       -0.0169
     27 H           5.5953   -1.8093   -1.7832 H       1  UNL1        0.1456
     28 H           4.1492   -1.8946   -0.9610 H       1  UNL1        0.1456
     29 H           4.8959    0.5730    1.5899 H       1  UNL1        0.1747
     30 H           3.2924    2.5042    2.1041 H       1  UNL1        0.0636
     31 H           0.9283    3.0412    2.3244 H       1  UNL1        0.0619
     32 H          -0.7118    1.6764    1.2361 H       1  UNL1        0.0636
     33 H          -0.1867   -1.4539   -0.2008 H       1  UNL1        0.1737
     34 H           2.2851   -0.7294   -0.2810 H       1  UNL1        0.0655
@<TRIPOS>BOND
     1     1     2    1
     2     2     3    2
     3     2     4    2
     4     2     5    1
     5     5     6    1
     6     6     7   ar
     7     6    26   ar
     8     7     8   ar
     9     8     9   ar
    10     9    10   ar
    11    10    11    1
    12    10    26   ar
    13    11    12    1
    14    12    13    2
    15    12    14    2
    16    12    15    1
    17    15    16   ar
    18    15    24   ar
    19    16    17    1
    20    16    18   ar
    21    18    19    1
    22    18    20   ar
    23    20    21    1
    24    20    22   ar
    25    22    23    1
    26    22    24   ar
    27    24    25    1
    28     1    27    1
    29     1    28    1
    30     5    29    1
    31     7    30    1
    32     8    31    1
    33     9    32    1
    34    11    33    1
    35    26    34    1
@<TRIPOS>MOLECULE
../data/bude_mols_rdkit_confs2/molecule_91.pdb
 34 35 0 0 0
SMALL
GASTEIGER

@<TRIPOS>ATOM
      1  N1         5.1340    1.4970   -0.0860 N.3     1  UNL1       -0.1906
      2  S1         5.0940   -0.1210   -0.7400 S.O2    1  UNL1        0.1067
      3  O1         4.4340   -0.0850   -2.0820 O.2     1  UNL1       -0.1383
      4  O2         6.5310   -0.5920   -0.8580 O.2     1  UNL1       -0.1383
      5  N2         4.2310   -1.0920    0.3690 N.pl3   1  UNL1       -0.2067
      6  C1         2.8110   -1.2660    0.2870 C.ar    1  UNL1        0.0508
      7  C2         2.3440   -2.5510    0.4360 C.ar    1  UNL1       -0.0392
      8  C3         0.9910   -2.7450    0.3610 C.ar    1  UNL1       -0.0582
      9  C4         0.1340   -1.6870    0.1450 C.ar    1  UNL1       -0.0392
     10  C5         0.5650   -0.3950   -0.0080 C.ar    1  UNL1        0.0498
     11  N3        -0.2780    0.7270   -0.2290 N.pl3   1  UNL1       -0.2160
     12  S2        -1.5360    0.6340   -1.3990 S.O2    1  UNL1        0.0780
     13  O3        -1.3270    1.6640   -2.4810 O.2     1  UNL1       -0.1498
     14  O4        -1.4770   -0.7100   -2.1180 O.2     1  UNL1       -0.1498
     15  C6        -3.0710    0.7850   -0.6320 C.ar    1  UNL1        0.1843
     16  C7        -3.8340   -0.2890   -0.2650 C.ar    1  UNL1        0.1907
     17  F1        -3.4570   -1.5610   -0.5080 F       1  UNL1       -0.2002
     18  C8        -5.0690   -0.1030    0.3750 C.ar    1  UNL1        0.1983
     19  F2        -5.8250   -1.1730    0.7390 F       1  UNL1       -0.1993
     20  C9        -5.4910    1.1770    0.6210 C.ar    1  UNL1        0.1992
     21  F3        -6.6790    1.3720    1.2370 F       1  UNL1       -0.1993
     22  C10       -4.7230    2.2530    0.2500 C.ar    1  UNL1        0.1983
     23  F4        -5.1470    3.5340    0.4980 F       1  UNL1       -0.1993
     24  C11       -3.5320    2.0520   -0.3670 C.ar    1  UNL1        0.1907
     25  F5        -2.7980    3.1380   -0.7190 F       1  UNL1       -0.2002
     26  C12        1.9570   -0.2180    0.0720 C.ar    1  UNL1       -0.0169
     27 H           5.6435    2.1089   -0.7235 H       1  UNL1        0.1456
     28 H           5.6012    1.4858    0.8207 H       1  UNL1        0.1456
     29 H           4.7255   -1.5472    1.0884 H       1  UNL1        0.1747
     30 H           2.9896   -3.3396    0.5983 H       1  UNL1        0.0636
     31 H           0.6070   -3.6969    0.4677 H       1  UNL1        0.0619
     32 H          -0.8793   -1.8767    0.0962 H       1  UNL1        0.0636
     33 H          -0.1427    1.5552    0.2858 H       1  UNL1        0.1737
     34 H           2.3473    0.7314   -0.0346 H       1  UNL1        0.0655
@<TRIPOS>BOND
     1     1     2    1
     2     2     3    2
     3     2     4    2
     4     2     5    1
     5     5     6    1
     6     6     7   ar
     7     6    26   ar
     8     7     8   ar
     9     8     9   ar
    10     9    10   ar
    11    10    11    1
    12    10    26   ar
    13    11    12    1
    14    12    13    2
    15    12    14    2
    16    12    15    1
    17    15    16   ar
    18    15    24   ar
    19    16    17    1
    20    16    18   ar
    21    18    19    1
    22    18    20   ar
    23    20    21    1
    24    20    22   ar
    25    22    23    1
    26    22    24   ar
    27    24    25    1
    28     1    27    1
    29     1    28    1
    30     5    29    1
    31     7    30    1
    32     8    31    1
    33     9    32    1
    34    11    33    1
    35    26    34    1
@<TRIPOS>MOLECULE
../data/bude_mols_rdkit_confs2/molecule_91.pdb
 34 35 0 0 0
SMALL
GASTEIGER

@<TRIPOS>ATOM
      1  N1        -3.3130    1.5970   -2.1540 N.3     1  UNL1       -0.1906
      2  S1        -4.0030    0.2170   -1.4190 S.O2    1  UNL1        0.1067
      3  O1        -5.1810   -0.2400   -2.2260 O.2     1  UNL1       -0.1383
      4  O2        -4.4800    0.6000   -0.0300 O.2     1  UNL1       -0.1383
      5  N2        -2.8660   -1.0670   -1.3130 N.pl3   1  UNL1       -0.2067
      6  C1        -2.0300   -1.2020   -0.1720 C.ar    1  UNL1        0.0508
      7  C2        -1.8980   -2.4900    0.3630 C.ar    1  UNL1       -0.0392
      8  C3        -1.0910   -2.6550    1.4740 C.ar    1  UNL1       -0.0582
      9  C4        -0.4370   -1.5660    2.0310 C.ar    1  UNL1       -0.0392
     10  C5        -0.5650   -0.2980    1.5070 C.ar    1  UNL1        0.0498
     11  N3         0.1340    0.7730    2.1280 N.pl3   1  UNL1       -0.2160
     12  S2         1.0330    1.9630    1.2680 S.O2    1  UNL1        0.0780
     13  O3         1.6020    2.9510    2.2300 O.2     1  UNL1       -0.1498
     14  O4         0.1390    2.6440    0.2610 O.2     1  UNL1       -0.1498
     15  C6         2.3250    1.1170    0.4120 C.ar    1  UNL1        0.1843
     16  C7         2.1440    0.6580   -0.8730 C.ar    1  UNL1        0.1907
     17  F1         0.9700    0.8470   -1.5240 F       1  UNL1       -0.2002
     18  C8         3.1870   -0.0090   -1.5180 C.ar    1  UNL1        0.1983
     19  F2         2.9850   -0.4540   -2.7880 F       1  UNL1       -0.1993
     20  C9         4.3830   -0.2160   -0.9000 C.ar    1  UNL1        0.1992
     21  F3         5.4130   -0.8650   -1.5110 F       1  UNL1       -0.1993
     22  C10        4.5820    0.2340    0.3800 C.ar    1  UNL1        0.1983
     23  F4         5.7790    0.0290    1.0030 F       1  UNL1       -0.1993
     24  C11        3.5480    0.8930    1.0110 C.ar    1  UNL1        0.1907
     25  F5         3.7290    1.3490    2.2900 F       1  UNL1       -0.2002
     26  C12       -1.3690   -0.1370    0.4010 C.ar    1  UNL1       -0.0169
     27 H          -4.0097    2.3404   -2.2029 H       1  UNL1        0.1456
     28 H          -3.0014    1.3605   -3.0960 H       1  UNL1        0.1456
     29 H          -2.7931   -1.7155   -2.0501 H       1  UNL1        0.1747
     30 H          -2.3891   -3.2931   -0.0600 H       1  UNL1        0.0636
     31 H          -0.9750   -3.5922    1.8903 H       1  UNL1        0.0619
     32 H           0.1612   -1.7092    2.8597 H       1  UNL1        0.0636
     33 H           0.1020    0.8381    3.1098 H       1  UNL1        0.1737
     34 H          -1.4793    0.8037   -0.0088 H       1  UNL1        0.0655
@<TRIPOS>BOND
     1     1     2    1
     2     2     3    2
     3     2     4    2
     4     2     5    1
     5     5     6    1
     6     6     7   ar
     7     6    26   ar
     8     7     8   ar
     9     8     9   ar
    10     9    10   ar
    11    10    11    1
    12    10    26   ar
    13    11    12    1
    14    12    13    2
    15    12    14    2
    16    12    15    1
    17    15    16   ar
    18    15    24   ar
    19    16    17    1
    20    16    18   ar
    21    18    19    1
    22    18    20   ar
    23    20    21    1
    24    20    22   ar
    25    22    23    1
    26    22    24   ar
    27    24    25    1
    28     1    27    1
    29     1    28    1
    30     5    29    1
    31     7    30    1
    32     8    31    1
    33     9    32    1
    34    11    33    1
    35    26    34    1
@<TRIPOS>MOLECULE
../data/bude_mols_rdkit_confs2/molecule_91.pdb
 34 35 0 0 0
SMALL
GASTEIGER

@<TRIPOS>ATOM
      1  N1        -3.0420    2.9200   -0.5210 N.3     1  UNL1       -0.1906
      2  S1        -3.9680    1.4990   -0.1920 S.O2    1  UNL1        0.1067
      3  O1        -5.2950    1.6440   -0.8800 O.2     1  UNL1       -0.1383
      4  O2        -4.2370    1.3790    1.2850 O.2     1  UNL1       -0.1383
      5  N2        -3.2110    0.0870   -0.7690 N.pl3   1  UNL1       -0.2067
      6  C1        -2.3170   -0.7360   -0.0700 C.ar    1  UNL1        0.0508
      7  C2        -2.5770   -1.1210    1.2260 C.ar    1  UNL1       -0.0392
      8  C3        -1.6550   -1.9420    1.8760 C.ar    1  UNL1       -0.0582
      9  C4        -0.5120   -2.3530    1.2220 C.ar    1  UNL1       -0.0392
     10  C5        -0.2260   -1.9790   -0.0880 C.ar    1  UNL1        0.0498
     11  N3         0.9650   -2.4300   -0.7130 N.pl3   1  UNL1       -0.2160
     12  S2         1.9740   -1.3790   -1.6180 S.O2    1  UNL1        0.0780
     13  O3         1.1720   -0.7230   -2.7220 O.2     1  UNL1       -0.1498
     14  O4         3.0950   -2.1360   -2.2680 O.2     1  UNL1       -0.1498
     15  C6         2.6060   -0.0930   -0.6250 C.ar    1  UNL1        0.1843
     16  C7         1.9480    1.1100   -0.4830 C.ar    1  UNL1        0.1907
     17  F1         0.7770    1.3410   -1.1160 F       1  UNL1       -0.2002
     18  C8         2.4720    2.1110    0.3120 C.ar    1  UNL1        0.1983
     19  F2         1.7900    3.2800    0.4240 F       1  UNL1       -0.1993
     20  C9         3.6610    1.9190    0.9740 C.ar    1  UNL1        0.1992
     21  F3         4.1930    2.8920    1.7610 F       1  UNL1       -0.1993
     22  C10        4.3120    0.7190    0.8280 C.ar    1  UNL1        0.1983
     23  F4         5.5000    0.5280    1.4900 F       1  UNL1       -0.1993
     24  C11        3.8070   -0.2910    0.0420 C.ar    1  UNL1        0.1907
     25  F5         4.4420   -1.4640   -0.1020 F       1  UNL1       -0.2002
     26  C12       -1.1560   -1.1670   -0.7020 C.ar    1  UNL1       -0.0169
     27 H          -3.5330    3.7373   -0.1585 H       1  UNL1        0.1456
     28 H          -2.9161    3.0181   -1.5284 H       1  UNL1        0.1456
     29 H          -3.4240   -0.1799   -1.6924 H       1  UNL1        0.1747
     30 H          -3.4354   -0.8090    1.7064 H       1  UNL1        0.0636
     31 H          -1.8284   -2.2424    2.8480 H       1  UNL1        0.0619
     32 H           0.1557   -2.9602    1.7225 H       1  UNL1        0.0636
     33 H           1.2206   -3.3766   -0.6244 H       1  UNL1        0.1737
     34 H          -0.9826   -0.8658   -1.6737 H       1  UNL1        0.0655
@<TRIPOS>BOND
     1     1     2    1
     2     2     3    2
     3     2     4    2
     4     2     5    1
     5     5     6    1
     6     6     7   ar
     7     6    26   ar
     8     7     8   ar
     9     8     9   ar
    10     9    10   ar
    11    10    11    1
    12    10    26   ar
    13    11    12    1
    14    12    13    2
    15    12    14    2
    16    12    15    1
    17    15    16   ar
    18    15    24   ar
    19    16    17    1
    20    16    18   ar
    21    18    19    1
    22    18    20   ar
    23    20    21    1
    24    20    22   ar
    25    22    23    1
    26    22    24   ar
    27    24    25    1
    28     1    27    1
    29     1    28    1
    30     5    29    1
    31     7    30    1
    32     8    31    1
    33     9    32    1
    34    11    33    1
    35    26    34    1
@<TRIPOS>MOLECULE
../data/bude_mols_rdkit_confs2/molecule_91.pdb
 34 35 0 0 0
SMALL
GASTEIGER

@<TRIPOS>ATOM
      1  N1         4.4630   -0.9280    2.2090 N.3     1  UNL1       -0.1906
      2  S1         4.5020    0.6240    1.4480 S.O2    1  UNL1        0.1067
      3  O1         5.0550    1.5930    2.4590 O.2     1  UNL1       -0.1383
      4  O2         5.4960    0.5440    0.3310 O.2     1  UNL1       -0.1383
      5  N2         2.9580    1.1410    0.9520 N.pl3   1  UNL1       -0.2067
      6  C1         2.3750    0.8830   -0.3140 C.ar    1  UNL1        0.0508
      7  C2         3.1180    1.0500   -1.4610 C.ar    1  UNL1       -0.0392
      8  C3         2.5320    0.7930   -2.6830 C.ar    1  UNL1       -0.0582
      9  C4         1.2210    0.3750   -2.7650 C.ar    1  UNL1       -0.0392
     10  C5         0.4370    0.1960   -1.6210 C.ar    1  UNL1        0.0498
     11  N3        -0.8860   -0.2310   -1.7790 N.pl3   1  UNL1       -0.2160
     12  S2        -1.6650   -1.4670   -0.8640 S.O2    1  UNL1        0.0780
     13  O3        -0.6400   -2.1740   -0.0270 O.2     1  UNL1       -0.1498
     14  O4        -2.2660   -2.4600   -1.8280 O.2     1  UNL1       -0.1498
     15  C6        -2.9460   -0.8100    0.1340 C.ar    1  UNL1        0.1843
     16  C7        -4.2400   -0.6690   -0.3800 C.ar    1  UNL1        0.1907
     17  F1        -4.4130   -1.0640   -1.6760 F       1  UNL1       -0.2002
     18  C8        -5.2600   -0.1630    0.3850 C.ar    1  UNL1        0.1983
     19  F2        -6.5000   -0.0410   -0.1460 F       1  UNL1       -0.1993
     20  C9        -5.0630    0.2300    1.6910 C.ar    1  UNL1        0.1992
     21  F3        -6.0960    0.7310    2.4310 F       1  UNL1       -0.1993
     22  C10       -3.8000    0.1010    2.2170 C.ar    1  UNL1        0.1983
     23  F4        -3.5980    0.4840    3.4990 F       1  UNL1       -0.1993
     24  C11       -2.7700   -0.4120    1.4390 C.ar    1  UNL1        0.1907
     25  F5        -1.5230   -0.5350    1.9980 F       1  UNL1       -0.2002
     26  C12        1.0490    0.4590   -0.4160 C.ar    1  UNL1       -0.0169
     27 H           5.4075   -1.1939    2.4875 H       1  UNL1        0.1456
     28 H           4.0944   -1.6183    1.5548 H       1  UNL1        0.1456
     29 H           2.4266    1.6616    1.5969 H       1  UNL1        0.1747
     30 H           4.0999    1.3632   -1.4073 H       1  UNL1        0.0636
     31 H           3.0824    0.9153   -3.5474 H       1  UNL1        0.0619
     32 H           0.8083    0.1898   -3.6926 H       1  UNL1        0.0636
     33 H          -1.4202    0.2146   -2.4756 H       1  UNL1        0.1737
     34 H           0.5027    0.3371    0.4510 H       1  UNL1        0.0655
@<TRIPOS>BOND
     1     1     2    1
     2     2     3    2
     3     2     4    2
     4     2     5    1
     5     5     6    1
     6     6     7   ar
     7     6    26   ar
     8     7     8   ar
     9     8     9   ar
    10     9    10   ar
    11    10    11    1
    12    10    26   ar
    13    11    12    1
    14    12    13    2
    15    12    14    2
    16    12    15    1
    17    15    16   ar
    18    15    24   ar
    19    16    17    1
    20    16    18   ar
    21    18    19    1
    22    18    20   ar
    23    20    21    1
    24    20    22   ar
    25    22    23    1
    26    22    24   ar
    27    24    25    1
    28     1    27    1
    29     1    28    1
    30     5    29    1
    31     7    30    1
    32     8    31    1
    33     9    32    1
    34    11    33    1
    35    26    34    1
@<TRIPOS>MOLECULE
../data/bude_mols_rdkit_confs2/molecule_91.pdb
 34 35 0 0 0
SMALL
GASTEIGER

@<TRIPOS>ATOM
      1  N1        -5.2890    0.7410    1.6680 N.3     1  UNL1       -0.1906
      2  S1        -5.1840   -0.4460    0.3940 S.O2    1  UNL1        0.1067
      3  O1        -4.7810   -1.7510    0.9890 O.2     1  UNL1       -0.1383
      4  O2        -6.5340   -0.5500   -0.2660 O.2     1  UNL1       -0.1383
      5  N2        -4.0320    0.1490   -0.7390 N.pl3   1  UNL1       -0.2067
      6  C1        -2.6460   -0.1410   -0.6720 C.ar    1  UNL1        0.0508
      7  C2        -2.2310   -1.4470   -0.4490 C.ar    1  UNL1       -0.0392
      8  C3        -0.8850   -1.7360   -0.3870 C.ar    1  UNL1       -0.0582
      9  C4         0.0660   -0.7460   -0.5440 C.ar    1  UNL1       -0.0392
     10  C5        -0.3020    0.5500   -0.7640 C.ar    1  UNL1        0.0498
     11  N3         0.6420    1.5870   -0.9580 N.pl3   1  UNL1       -0.2160
     12  S2         1.9300    2.0040    0.0830 S.O2    1  UNL1        0.0780
     13  O3         1.3700    2.4180    1.4270 O.2     1  UNL1       -0.1498
     14  O4         2.6040    3.2490   -0.4520 O.2     1  UNL1       -0.1498
     15  C6         3.0400    0.6990    0.2630 C.ar    1  UNL1        0.1843
     16  C7         4.0670    0.4570   -0.6550 C.ar    1  UNL1        0.1907
     17  F1         4.1540    1.2720   -1.7480 F       1  UNL1       -0.2002
     18  C8         4.9400   -0.5760   -0.4320 C.ar    1  UNL1        0.1983
     19  F2         5.9350   -0.8060   -1.3270 F       1  UNL1       -0.1993
     20  C9         4.8230   -1.3820    0.6850 C.ar    1  UNL1        0.1992
     21  F3         5.6920   -2.3960    0.8910 F       1  UNL1       -0.1993
     22  C10        3.8180   -1.1710    1.6170 C.ar    1  UNL1        0.1983
     23  F4         3.6760   -1.9440    2.7250 F       1  UNL1       -0.1993
     24  C11        2.9470   -0.1330    1.3850 C.ar    1  UNL1        0.1907
     25  F5         1.9470    0.1050    2.2770 F       1  UNL1       -0.2002
     26  C12       -1.6760    0.8230   -0.8240 C.ar    1  UNL1       -0.0169
     27 H          -5.9636    0.4305    2.3672 H       1  UNL1        0.1456
     28 H          -5.5908    1.6335    1.2771 H       1  UNL1        0.1456
     29 H          -4.3532    0.7214   -1.4728 H       1  UNL1        0.1747
     30 H          -2.9280   -2.1987   -0.3301 H       1  UNL1        0.0636
     31 H          -0.5822   -2.7084   -0.2205 H       1  UNL1        0.0619
     32 H           1.0676   -0.9895   -0.4943 H       1  UNL1        0.0636
     33 H           0.5460    2.1233   -1.7780 H       1  UNL1        0.1737
     34 H          -1.9750    1.7966   -0.9907 H       1  UNL1        0.0655
@<TRIPOS>BOND
     1     1     2    1
     2     2     3    2
     3     2     4    2
     4     2     5    1
     5     5     6    1
     6     6     7   ar
     7     6    26   ar
     8     7     8   ar
     9     8     9   ar
    10     9    10   ar
    11    10    11    1
    12    10    26   ar
    13    11    12    1
    14    12    13    2
    15    12    14    2
    16    12    15    1
    17    15    16   ar
    18    15    24   ar
    19    16    17    1
    20    16    18   ar
    21    18    19    1
    22    18    20   ar
    23    20    21    1
    24    20    22   ar
    25    22    23    1
    26    22    24   ar
    27    24    25    1
    28     1    27    1
    29     1    28    1
    30     5    29    1
    31     7    30    1
    32     8    31    1
    33     9    32    1
    34    11    33    1
    35    26    34    1
