@<TRIPOS>MOLECULE
../data/bude_mols_rdkit_confs2/molecule_10.pdb
 33 35 0 0 0
SMALL
GASTEIGER

@<TRIPOS>ATOM
      1 O           0.5750    1.4270   -0.5850 O.2     1  UNL1       -0.2445
      2 C           0.8780    0.4150    0.0970 C.2     1  UNL1        0.3447
      3 O          -0.0780   -0.1110    0.9310 O.3     1  UNL1       -0.4217
      4 C          -1.3590    0.3950    1.0770 C.ar    1  UNL1        0.1396
      5 C          -1.5450    1.3520    2.0500 C.ar    1  UNL1       -0.0186
      6 C          -2.7630    1.9220    2.2840 C.ar    1  UNL1       -0.0577
      7 C          -3.8320    1.5190    1.5160 C.ar    1  UNL1       -0.0538
      8 C          -3.6740    0.5550    0.5260 C.ar    1  UNL1       -0.0144
      9 C          -4.7170    0.1300   -0.2570 C.ar    1  UNL1       -0.0539
     10 C          -4.5200   -0.8410   -1.2430 C.ar    1  UNL1       -0.0612
     11 C          -3.2750   -1.3840   -1.4400 C.ar    1  UNL1       -0.0611
     12 C          -2.2190   -0.9730   -0.6680 C.ar    1  UNL1       -0.0505
     13 C          -2.4230   -0.0020    0.3160 C.ar    1  UNL1        0.0245
     14 C           2.2250   -0.1440   -0.0370 C.ar    1  UNL1        0.0658
     15 C           2.6160   -1.2530    0.6840 C.ar    1  UNL1       -0.0473
     16 C           3.8960   -1.7770    0.5520 C.ar    1  UNL1       -0.0546
     17 C           4.8080   -1.1900   -0.3130 C.ar    1  UNL1        0.0156
     18 C           4.4280   -0.0790   -1.0400 C.ar    1  UNL1        0.2739
     19 N           5.3540    0.5340   -1.9320 N.pl3   1  UNL1        0.0796
     20 O           5.0250    1.5360   -2.5930 O.2     1  UNL1        0.0414
     21 O           6.6180    0.0220   -2.0670 O.co2   1  UNL1       -0.5760
     22 C           3.1490    0.4200   -0.8890 C.ar    1  UNL1        0.0295
     23 H          -0.7374    1.6476    2.6205 H       1  UNL1        0.0654
     24 H          -2.8796    2.6374    3.0186 H       1  UNL1        0.0619
     25 H          -4.7617    1.9371    1.6767 H       1  UNL1        0.0624
     26 H          -5.6573    0.5315   -0.1166 H       1  UNL1        0.0624
     27 H          -5.3138   -1.1508   -1.8251 H       1  UNL1        0.0618
     28 H          -3.1338   -2.1011   -2.1686 H       1  UNL1        0.0618
     29 H          -1.2807   -1.3777   -0.8125 H       1  UNL1        0.0625
     30 H           1.9479   -1.7001    1.3311 H       1  UNL1        0.0626
     31 H           4.1698   -2.6073    1.1003 H       1  UNL1        0.0620
     32 H           5.7588   -1.5788   -0.4120 H       1  UNL1        0.0685
     33 H           2.8741    1.2500   -1.4373 H       1  UNL1        0.0693
@<TRIPOS>UNITY_ATOM_ATTR
19 1
charge 1
21 1
charge -1
@<TRIPOS>BOND
     1     1     2    2
     2     2     3    1
     3     2    14    1
     4     3     4    1
     5     4     5   ar
     6     4    13   ar
     7     5     6   ar
     8     6     7   ar
     9     7     8   ar
    10     8     9   ar
    11     8    13   ar
    12     9    10   ar
    13    10    11   ar
    14    11    12   ar
    15    12    13   ar
    16    14    15   ar
    17    14    22   ar
    18    15    16   ar
    19    16    17   ar
    20    17    18   ar
    21    18    19    1
    22    18    22   ar
    23    19    20    2
    24    19    21    1
    25     5    23    1
    26     6    24    1
    27     7    25    1
    28     9    26    1
    29    10    27    1
    30    11    28    1
    31    12    29    1
    32    15    30    1
    33    16    31    1
    34    17    32    1
    35    22    33    1
@<TRIPOS>MOLECULE
../data/bude_mols_rdkit_confs2/molecule_10.pdb
 33 35 0 0 0
SMALL
GASTEIGER

@<TRIPOS>ATOM
      1 O           0.2050    2.0050    0.2210 O.2     1  UNL1       -0.2445
      2 C           0.7760    0.9160   -0.0170 C.2     1  UNL1        0.3447
      3 O           0.0750   -0.0780   -0.6460 O.3     1  UNL1       -0.4217
      4 C          -1.2490    0.0310   -1.0510 C.ar    1  UNL1        0.1396
      5 C          -1.5530    0.5030   -2.3110 C.ar    1  UNL1       -0.0186
      6 C          -2.8810    0.6080   -2.7090 C.ar    1  UNL1       -0.0577
      7 C          -3.9010    0.2370   -1.8320 C.ar    1  UNL1       -0.0538
      8 C          -3.6000   -0.2350   -0.5730 C.ar    1  UNL1       -0.0144
      9 C          -4.6100   -0.6010    0.2920 C.ar    1  UNL1       -0.0539
     10 C          -4.2620   -1.0720    1.5540 C.ar    1  UNL1       -0.0612
     11 C          -2.9430   -1.1760    1.9460 C.ar    1  UNL1       -0.0611
     12 C          -1.9330   -0.8000    1.0550 C.ar    1  UNL1       -0.0505
     13 C          -2.2790   -0.3330   -0.1950 C.ar    1  UNL1        0.0245
     14 C           2.1790    0.7900    0.4080 C.ar    1  UNL1        0.0658
     15 C           2.8110    1.8290    1.0320 C.ar    1  UNL1       -0.0473
     16 C           4.1140    1.7040    1.4230 C.ar    1  UNL1       -0.0546
     17 C           4.8040    0.5470    1.2000 C.ar    1  UNL1        0.0156
     18 C           4.1700   -0.5160    0.5650 C.ar    1  UNL1        0.2739
     19 N           4.9140   -1.6960    0.3510 N.pl3   1  UNL1        0.0796
     20 O           6.0930   -1.7980    0.7090 O.2     1  UNL1        0.0414
     21 O           4.3140   -2.7550   -0.2710 O.co2   1  UNL1       -0.5760
     22 C           2.8570   -0.3970    0.1680 C.ar    1  UNL1        0.0295
     23 H          -0.7963    0.7776   -2.9568 H       1  UNL1        0.0654
     24 H          -3.1120    0.9597   -3.6513 H       1  UNL1        0.0619
     25 H          -4.8864    0.3166   -2.1281 H       1  UNL1        0.0624
     26 H          -5.6000   -0.5273    0.0099 H       1  UNL1        0.0624
     27 H          -5.0071   -1.3499    2.2118 H       1  UNL1        0.0618
     28 H          -2.7046   -1.5275    2.8866 H       1  UNL1        0.0618
     29 H          -0.9408   -0.8712    1.3298 H       1  UNL1        0.0625
     30 H           2.3028    2.7097    1.2081 H       1  UNL1        0.0626
     31 H           4.5828    2.4942    1.8929 H       1  UNL1        0.0620
     32 H           5.7877    0.4619    1.5001 H       1  UNL1        0.0685
     33 H           2.3818   -1.1825   -0.3033 H       1  UNL1        0.0693
@<TRIPOS>UNITY_ATOM_ATTR
19 1
charge 1
21 1
charge -1
@<TRIPOS>BOND
     1     1     2    2
     2     2     3    1
     3     2    14    1
     4     3     4    1
     5     4     5   ar
     6     4    13   ar
     7     5     6   ar
     8     6     7   ar
     9     7     8   ar
    10     8     9   ar
    11     8    13   ar
    12     9    10   ar
    13    10    11   ar
    14    11    12   ar
    15    12    13   ar
    16    14    15   ar
    17    14    22   ar
    18    15    16   ar
    19    16    17   ar
    20    17    18   ar
    21    18    19    1
    22    18    22   ar
    23    19    20    2
    24    19    21    1
    25     5    23    1
    26     6    24    1
    27     7    25    1
    28     9    26    1
    29    10    27    1
    30    11    28    1
    31    12    29    1
    32    15    30    1
    33    16    31    1
    34    17    32    1
    35    22    33    1
@<TRIPOS>MOLECULE
../data/bude_mols_rdkit_confs2/molecule_10.pdb
 33 35 0 0 0
SMALL
GASTEIGER

@<TRIPOS>ATOM
      1 O           0.2440   -1.9110   -0.0970 O.2     1  UNL1       -0.2445
      2 C           0.7850   -0.7750   -0.3290 C.2     1  UNL1        0.3447
      3 O          -0.0640    0.2000   -0.8330 O.3     1  UNL1       -0.4217
      4 C          -1.3910   -0.0810   -1.0510 C.ar    1  UNL1        0.1396
      5 C          -1.8440   -0.5740   -2.2560 C.ar    1  UNL1       -0.0186
      6 C          -3.1930   -0.8230   -2.3750 C.ar    1  UNL1       -0.0577
      7 C          -4.0610   -0.5910   -1.3280 C.ar    1  UNL1       -0.0538
      8 C          -3.6180   -0.0950   -0.1100 C.ar    1  UNL1       -0.0144
      9 C          -4.4910    0.1370    0.9370 C.ar    1  UNL1       -0.0539
     10 C          -4.0170    0.6320    2.1390 C.ar    1  UNL1       -0.0612
     11 C          -2.6600    0.8880    2.2730 C.ar    1  UNL1       -0.0611
     12 C          -1.7980    0.6510    1.2170 C.ar    1  UNL1       -0.0505
     13 C          -2.2670    0.1550    0.0090 C.ar    1  UNL1        0.0245
     14 C           2.1910   -0.5460   -0.0760 C.ar    1  UNL1        0.0658
     15 C           2.9560   -1.5720    0.4240 C.ar    1  UNL1       -0.0473
     16 C           4.3180   -1.3920    0.6830 C.ar    1  UNL1       -0.0546
     17 C           4.8950   -0.1720    0.4330 C.ar    1  UNL1        0.0156
     18 C           4.1140    0.8620   -0.0740 C.ar    1  UNL1        0.2739
     19 N           4.6820    2.1320   -0.3420 N.pl3   1  UNL1        0.0796
     20 O           3.9600    3.0300   -0.7920 O.2     1  UNL1        0.0414
     21 O           6.0050    2.3630   -0.1080 O.co2   1  UNL1       -0.5760
     22 C           2.7510    0.6750   -0.3300 C.ar    1  UNL1        0.0295
     23 H          -1.1961   -0.7499   -3.0398 H       1  UNL1        0.0654
     24 H          -3.5624   -1.1907   -3.2657 H       1  UNL1        0.0619
     25 H          -5.0655   -0.7915   -1.4538 H       1  UNL1        0.0624
     26 H          -5.4976   -0.0593    0.8217 H       1  UNL1        0.0624
     27 H          -4.6632    0.8081    2.9241 H       1  UNL1        0.0618
     28 H          -2.2921    1.2567    3.1639 H       1  UNL1        0.0618
     29 H          -0.7909    0.8461    1.3295 H       1  UNL1        0.0625
     30 H           2.5192   -2.4881    0.6109 H       1  UNL1        0.0626
     31 H           4.8841   -2.1689    1.0585 H       1  UNL1        0.0620
     32 H           5.8990   -0.0229    0.6194 H       1  UNL1        0.0685
     33 H           2.1775    1.4468   -0.7047 H       1  UNL1        0.0693
@<TRIPOS>UNITY_ATOM_ATTR
19 1
charge 1
21 1
charge -1
@<TRIPOS>BOND
     1     1     2    2
     2     2     3    1
     3     2    14    1
     4     3     4    1
     5     4     5   ar
     6     4    13   ar
     7     5     6   ar
     8     6     7   ar
     9     7     8   ar
    10     8     9   ar
    11     8    13   ar
    12     9    10   ar
    13    10    11   ar
    14    11    12   ar
    15    12    13   ar
    16    14    15   ar
    17    14    22   ar
    18    15    16   ar
    19    16    17   ar
    20    17    18   ar
    21    18    19    1
    22    18    22   ar
    23    19    20    2
    24    19    21    1
    25     5    23    1
    26     6    24    1
    27     7    25    1
    28     9    26    1
    29    10    27    1
    30    11    28    1
    31    12    29    1
    32    15    30    1
    33    16    31    1
    34    17    32    1
    35    22    33    1
@<TRIPOS>MOLECULE
../data/bude_mols_rdkit_confs2/molecule_10.pdb
 33 35 0 0 0
SMALL
GASTEIGER

@<TRIPOS>ATOM
      1 O           0.0070   -1.9840   -0.3630 O.2     1  UNL1       -0.2445
      2 C           0.7120   -0.9580   -0.3500 C.2     1  UNL1        0.3447
      3 O           0.1020    0.2320   -0.7250 O.3     1  UNL1       -0.4217
      4 C          -1.2370    0.2440   -1.0930 C.ar    1  UNL1        0.1396
      5 C          -1.6720    0.0590   -2.3860 C.ar    1  UNL1       -0.0186
      6 C          -3.0160    0.0760   -2.7180 C.ar    1  UNL1       -0.0577
      7 C          -3.9780    0.2830   -1.7450 C.ar    1  UNL1       -0.0538
      8 C          -3.5570    0.4700   -0.4480 C.ar    1  UNL1       -0.0144
      9 C          -4.5100    0.6780    0.5360 C.ar    1  UNL1       -0.0539
     10 C          -4.0900    0.8660    1.8410 C.ar    1  UNL1       -0.0612
     11 C          -2.7390    0.8480    2.1740 C.ar    1  UNL1       -0.0611
     12 C          -1.7940    0.6390    1.1850 C.ar    1  UNL1       -0.0505
     13 C          -2.1980    0.4500   -0.1250 C.ar    1  UNL1        0.0245
     14 C           2.1130   -0.9400    0.0310 C.ar    1  UNL1        0.0658
     15 C           2.7420   -2.1060    0.4070 C.ar    1  UNL1       -0.0473
     16 C           4.0770   -2.0510    0.7630 C.ar    1  UNL1       -0.0546
     17 C           4.7870   -0.8730    0.7510 C.ar    1  UNL1        0.0156
     18 C           4.1660    0.2890    0.3770 C.ar    1  UNL1        0.2739
     19 N           4.8720    1.5480    0.3500 N.pl3   1  UNL1        0.0796
     20 O           6.0730    1.5500    0.6780 O.2     1  UNL1        0.0414
     21 O           4.2030    2.6770   -0.0310 O.co2   1  UNL1       -0.5760
     22 C           2.8360    0.2280    0.0240 C.ar    1  UNL1        0.0295
     23 H          -0.9748   -0.0972   -3.1307 H       1  UNL1        0.0654
     24 H          -3.3027   -0.0669   -3.6990 H       1  UNL1        0.0619
     25 H          -4.9816    0.2968   -1.9848 H       1  UNL1        0.0624
     26 H          -5.5145    0.6924    0.3000 H       1  UNL1        0.0624
     27 H          -4.7919    1.0225    2.5812 H       1  UNL1        0.0618
     28 H          -2.4436    0.9897    3.1526 H       1  UNL1        0.0618
     29 H          -0.7901    0.6241    1.4238 H       1  UNL1        0.0625
     30 H           2.2284   -3.0010    0.4227 H       1  UNL1        0.0626
     31 H           4.5553   -2.9204    1.0464 H       1  UNL1        0.0620
     32 H           5.7826   -0.8648    1.0224 H       1  UNL1        0.0685
     33 H           2.3610    1.0995   -0.2586 H       1  UNL1        0.0693
@<TRIPOS>UNITY_ATOM_ATTR
19 1
charge 1
21 1
charge -1
@<TRIPOS>BOND
     1     1     2    2
     2     2     3    1
     3     2    14    1
     4     3     4    1
     5     4     5   ar
     6     4    13   ar
     7     5     6   ar
     8     6     7   ar
     9     7     8   ar
    10     8     9   ar
    11     8    13   ar
    12     9    10   ar
    13    10    11   ar
    14    11    12   ar
    15    12    13   ar
    16    14    15   ar
    17    14    22   ar
    18    15    16   ar
    19    16    17   ar
    20    17    18   ar
    21    18    19    1
    22    18    22   ar
    23    19    20    2
    24    19    21    1
    25     5    23    1
    26     6    24    1
    27     7    25    1
    28     9    26    1
    29    10    27    1
    30    11    28    1
    31    12    29    1
    32    15    30    1
    33    16    31    1
    34    17    32    1
    35    22    33    1
@<TRIPOS>MOLECULE
../data/bude_mols_rdkit_confs2/molecule_10.pdb
 33 35 0 0 0
SMALL
GASTEIGER

@<TRIPOS>ATOM
      1 O           0.3140   -1.3800   -1.3410 O.2     1  UNL1       -0.2445
      2 C           0.7750   -0.7950   -0.3430 C.2     1  UNL1        0.3447
      3 O          -0.0960   -0.4320    0.6750 O.3     1  UNL1       -0.4217
      4 C          -1.4500   -0.7220    0.5660 C.ar    1  UNL1        0.1396
      5 C          -1.9410   -1.9140    1.0410 C.ar    1  UNL1       -0.0186
      6 C          -3.2940   -2.1640    0.9120 C.ar    1  UNL1       -0.0577
      7 C          -4.1620   -1.2620    0.3260 C.ar    1  UNL1       -0.0538
      8 C          -3.6410   -0.0730   -0.1420 C.ar    1  UNL1       -0.0144
      9 C          -4.4600    0.8780   -0.7420 C.ar    1  UNL1       -0.0539
     10 C          -3.9400    2.0690   -1.2110 C.ar    1  UNL1       -0.0612
     11 C          -2.5960    2.3090   -1.0800 C.ar    1  UNL1       -0.0611
     12 C          -1.7510    1.4020   -0.4960 C.ar    1  UNL1       -0.0505
     13 C          -2.2810    0.2150   -0.0300 C.ar    1  UNL1        0.0245
     14 C           2.2090   -0.4980   -0.2490 C.ar    1  UNL1        0.0658
     15 C           3.0510   -0.8660   -1.2660 C.ar    1  UNL1       -0.0473
     16 C           4.4090   -0.6280   -1.2610 C.ar    1  UNL1       -0.0546
     17 C           4.9200    0.0200   -0.1560 C.ar    1  UNL1        0.0156
     18 C           4.1070    0.4060    0.8860 C.ar    1  UNL1        0.2739
     19 N           4.6340    1.0680    2.0130 N.pl3   1  UNL1        0.0796
     20 O           3.9180    1.4220    2.9600 O.2     1  UNL1        0.0414
     21 O           5.9760    1.3320    2.0750 O.co2   1  UNL1       -0.5760
     22 C           2.7330    0.1480    0.8490 C.ar    1  UNL1        0.0295
     23 H          -1.3151   -2.6053    1.4830 H       1  UNL1        0.0654
     24 H          -3.6702   -3.0573    1.2663 H       1  UNL1        0.0619
     25 H          -5.1690   -1.4713    0.2411 H       1  UNL1        0.0624
     26 H          -5.4704    0.6912   -0.8382 H       1  UNL1        0.0624
     27 H          -4.5551    2.7692   -1.6543 H       1  UNL1        0.0618
     28 H          -2.2097    3.1990   -1.4317 H       1  UNL1        0.0618
     29 H          -0.7424    1.6013   -0.4065 H       1  UNL1        0.0625
     30 H           2.6450   -1.3491   -2.0826 H       1  UNL1        0.0626
     31 H           5.0130   -0.9202   -2.0451 H       1  UNL1        0.0620
     32 H           5.9315    0.2195   -0.1092 H       1  UNL1        0.0685
     33 H           2.1229    0.4363    1.6299 H       1  UNL1        0.0693
@<TRIPOS>UNITY_ATOM_ATTR
19 1
charge 1
21 1
charge -1
@<TRIPOS>BOND
     1     1     2    2
     2     2     3    1
     3     2    14    1
     4     3     4    1
     5     4     5   ar
     6     4    13   ar
     7     5     6   ar
     8     6     7   ar
     9     7     8   ar
    10     8     9   ar
    11     8    13   ar
    12     9    10   ar
    13    10    11   ar
    14    11    12   ar
    15    12    13   ar
    16    14    15   ar
    17    14    22   ar
    18    15    16   ar
    19    16    17   ar
    20    17    18   ar
    21    18    19    1
    22    18    22   ar
    23    19    20    2
    24    19    21    1
    25     5    23    1
    26     6    24    1
    27     7    25    1
    28     9    26    1
    29    10    27    1
    30    11    28    1
    31    12    29    1
    32    15    30    1
    33    16    31    1
    34    17    32    1
    35    22    33    1
@<TRIPOS>MOLECULE
../data/bude_mols_rdkit_confs2/molecule_10.pdb
 33 35 0 0 0
SMALL
GASTEIGER

@<TRIPOS>ATOM
      1 O           0.6210   -1.4240   -0.1880 O.2     1  UNL1       -0.2445
      2 C           0.8440   -0.3190    0.3670 C.2     1  UNL1        0.3447
      3 O          -0.2230    0.2760    1.0220 O.3     1  UNL1       -0.4217
      4 C          -1.4870   -0.3370    1.0560 C.ar    1  UNL1        0.1396
      5 C          -1.8380   -1.2090    2.0650 C.ar    1  UNL1       -0.0186
      6 C          -3.0680   -1.8300    2.1330 C.ar    1  UNL1       -0.0577
      7 C          -3.9590   -1.5350    1.1210 C.ar    1  UNL1       -0.0538
      8 C          -3.6410   -0.6670    0.0960 C.ar    1  UNL1       -0.0144
      9 C          -4.5410   -0.3750   -0.9170 C.ar    1  UNL1       -0.0539
     10 C          -4.1900    0.4970   -1.9260 C.ar    1  UNL1       -0.0612
     11 C          -2.9490    1.1020   -1.9640 C.ar    1  UNL1       -0.0611
     12 C          -2.0570    0.8150   -0.9620 C.ar    1  UNL1       -0.0505
     13 C          -2.4030   -0.0570    0.0500 C.ar    1  UNL1        0.0245
     14 C           2.1690    0.2890    0.3120 C.ar    1  UNL1        0.0658
     15 C           2.4730    1.4830    0.8920 C.ar    1  UNL1       -0.0473
     16 C           3.7490    2.0350    0.8200 C.ar    1  UNL1       -0.0546
     17 C           4.7530    1.3720    0.1460 C.ar    1  UNL1        0.0156
     18 C           4.4560    0.1540   -0.4500 C.ar    1  UNL1        0.2739
     19 N           5.4800   -0.5320   -1.1420 N.pl3   1  UNL1        0.0796
     20 O           6.6240   -0.0660   -1.2230 O.2     1  UNL1        0.0414
     21 O           5.1910   -1.7320   -1.7300 O.co2   1  UNL1       -0.5760
     22 C           3.1770   -0.3690   -0.3600 C.ar    1  UNL1        0.0295
     23 H          -1.1468   -1.4067    2.8054 H       1  UNL1        0.0654
     24 H          -3.3086   -2.4792    2.8982 H       1  UNL1        0.0619
     25 H          -4.8915   -1.9769    1.1310 H       1  UNL1        0.0624
     26 H          -5.4762   -0.8113   -0.9161 H       1  UNL1        0.0624
     27 H          -4.8725    0.7029   -2.6722 H       1  UNL1        0.0618
     28 H          -2.6995    1.7523   -2.7255 H       1  UNL1        0.0618
     29 H          -1.1227    1.2533   -0.9651 H       1  UNL1        0.0625
     30 H           1.7348    1.9944    1.4005 H       1  UNL1        0.0626
     31 H           3.9440    2.9421    1.2719 H       1  UNL1        0.0620
     32 H           5.7025    1.7718    0.0861 H       1  UNL1        0.0685
     33 H           2.9728   -1.2759   -0.8081 H       1  UNL1        0.0693
@<TRIPOS>UNITY_ATOM_ATTR
19 1
charge 1
21 1
charge -1
@<TRIPOS>BOND
     1     1     2    2
     2     2     3    1
     3     2    14    1
     4     3     4    1
     5     4     5   ar
     6     4    13   ar
     7     5     6   ar
     8     6     7   ar
     9     7     8   ar
    10     8     9   ar
    11     8    13   ar
    12     9    10   ar
    13    10    11   ar
    14    11    12   ar
    15    12    13   ar
    16    14    15   ar
    17    14    22   ar
    18    15    16   ar
    19    16    17   ar
    20    17    18   ar
    21    18    19    1
    22    18    22   ar
    23    19    20    2
    24    19    21    1
    25     5    23    1
    26     6    24    1
    27     7    25    1
    28     9    26    1
    29    10    27    1
    30    11    28    1
    31    12    29    1
    32    15    30    1
    33    16    31    1
    34    17    32    1
    35    22    33    1
@<TRIPOS>MOLECULE
../data/bude_mols_rdkit_confs2/molecule_10.pdb
 33 35 0 0 0
SMALL
GASTEIGER

@<TRIPOS>ATOM
      1 O           0.4410   -1.3210    1.0710 O.2     1  UNL1       -0.2445
      2 C           0.7870   -0.5950    0.1090 C.2     1  UNL1        0.3447
      3 O          -0.1780   -0.1780   -0.7920 O.3     1  UNL1       -0.4217
      4 C          -1.5040   -0.5600   -0.6290 C.ar    1  UNL1        0.1396
      5 C          -1.9080   -1.7320   -1.2340 C.ar    1  UNL1       -0.0186
      6 C          -3.2150   -2.1100   -1.0750 C.ar    1  UNL1       -0.0577
      7 C          -4.0870   -1.3400   -0.3350 C.ar    1  UNL1       -0.0538
      8 C          -3.6790   -0.1590    0.2740 C.ar    1  UNL1       -0.0144
      9 C          -4.5770    0.5870    1.0070 C.ar    1  UNL1       -0.0539
     10 C          -4.1430    1.7590    1.6020 C.ar    1  UNL1       -0.0612
     11 C          -2.8330    2.1460    1.4480 C.ar    1  UNL1       -0.0611
     12 C          -1.9380    1.4020    0.7170 C.ar    1  UNL1       -0.0505
     13 C          -2.3620    0.2200    0.1120 C.ar    1  UNL1        0.0245
     14 C           2.1590   -0.1650   -0.1120 C.ar    1  UNL1        0.0658
     15 C           2.5060    0.6320   -1.1780 C.ar    1  UNL1       -0.0473
     16 C           3.8280    1.0260   -1.3600 C.ar    1  UNL1       -0.0546
     17 C           4.8090    0.6270   -0.4810 C.ar    1  UNL1        0.0156
     18 C           4.4830   -0.1720    0.5940 C.ar    1  UNL1        0.2739
     19 N           5.4920   -0.6030    1.5300 N.pl3   1  UNL1        0.0796
     20 O           6.6690   -0.2360    1.3430 O.2     1  UNL1        0.0414
     21 O           5.2050   -1.3880    2.5960 O.co2   1  UNL1       -0.5760
     22 C           3.1700   -0.5530    0.7610 C.ar    1  UNL1        0.0295
     23 H          -1.2495   -2.3033   -1.7863 H       1  UNL1        0.0654
     24 H          -3.5509   -2.9813   -1.5143 H       1  UNL1        0.0619
     25 H          -5.0664   -1.6480   -0.2307 H       1  UNL1        0.0624
     26 H          -5.5559    0.2771    1.1104 H       1  UNL1        0.0624
     27 H          -4.7958    2.3360    2.1552 H       1  UNL1        0.0618
     28 H          -2.5125    3.0198    1.8938 H       1  UNL1        0.0618
     29 H          -0.9600    1.7159    0.6168 H       1  UNL1        0.0625
     30 H           1.7821    0.9393   -1.8462 H       1  UNL1        0.0626
     31 H           4.0758    1.6244   -2.1635 H       1  UNL1        0.0620
     32 H           5.7862    0.9252   -0.6263 H       1  UNL1        0.0685
     33 H           2.9264   -1.1505    1.5664 H       1  UNL1        0.0693
@<TRIPOS>UNITY_ATOM_ATTR
19 1
charge 1
21 1
charge -1
@<TRIPOS>BOND
     1     1     2    2
     2     2     3    1
     3     2    14    1
     4     3     4    1
     5     4     5   ar
     6     4    13   ar
     7     5     6   ar
     8     6     7   ar
     9     7     8   ar
    10     8     9   ar
    11     8    13   ar
    12     9    10   ar
    13    10    11   ar
    14    11    12   ar
    15    12    13   ar
    16    14    15   ar
    17    14    22   ar
    18    15    16   ar
    19    16    17   ar
    20    17    18   ar
    21    18    19    1
    22    18    22   ar
    23    19    20    2
    24    19    21    1
    25     5    23    1
    26     6    24    1
    27     7    25    1
    28     9    26    1
    29    10    27    1
    30    11    28    1
    31    12    29    1
    32    15    30    1
    33    16    31    1
    34    17    32    1
    35    22    33    1
@<TRIPOS>MOLECULE
../data/bude_mols_rdkit_confs2/molecule_10.pdb
 33 35 0 0 0
SMALL
GASTEIGER

@<TRIPOS>ATOM
      1 O           0.5170    0.4840    1.3580 O.2     1  UNL1       -0.2445
      2 C           0.7990    0.5160    0.1560 C.2     1  UNL1        0.3447
      3 O          -0.2100    0.7950   -0.7530 O.3     1  UNL1       -0.4217
      4 C          -1.5060    1.0320   -0.3150 C.ar    1  UNL1        0.1396
      5 C          -1.9870    2.2780    0.0110 C.ar    1  UNL1       -0.0186
      6 C          -3.2890    2.4740    0.4450 C.ar    1  UNL1       -0.0577
      7 C          -4.1040    1.3720    0.5440 C.ar    1  UNL1       -0.0538
      8 C          -3.6620    0.0910    0.2250 C.ar    1  UNL1       -0.0144
      9 C          -4.5080   -0.9780    0.3380 C.ar    1  UNL1       -0.0539
     10 C          -4.0640   -2.2320    0.0230 C.ar    1  UNL1       -0.0612
     11 C          -2.7610   -2.3690   -0.4030 C.ar    1  UNL1       -0.0611
     12 C          -1.8800   -1.3210   -0.5300 C.ar    1  UNL1       -0.0505
     13 C          -2.3400   -0.0610   -0.2090 C.ar    1  UNL1        0.0245
     14 C           2.1680    0.2690   -0.3420 C.ar    1  UNL1        0.0658
     15 C           2.4230    0.3180   -1.6940 C.ar    1  UNL1       -0.0473
     16 C           3.7030    0.0860   -2.1540 C.ar    1  UNL1       -0.0546
     17 C           4.7530   -0.1970   -1.3060 C.ar    1  UNL1        0.0156
     18 C           4.4840   -0.2450    0.0650 C.ar    1  UNL1        0.2739
     19 N           5.5430   -0.5330    0.9570 N.pl3   1  UNL1        0.0796
     20 O           5.3150   -0.5780    2.1730 O.2     1  UNL1        0.0414
     21 O           6.8150   -0.7650    0.5210 O.co2   1  UNL1       -0.5760
     22 C           3.2020   -0.0120    0.5160 C.ar    1  UNL1        0.0295
     23 H          -1.3591    3.0930   -0.0699 H       1  UNL1        0.0654
     24 H          -3.6347    3.4161    0.6857 H       1  UNL1        0.0619
     25 H          -5.0764    1.4983    0.8656 H       1  UNL1        0.0624
     26 H          -5.4785   -0.8383    0.6601 H       1  UNL1        0.0624
     27 H          -4.6863   -3.0515    0.1020 H       1  UNL1        0.0618
     28 H          -2.4259   -3.3156   -0.6412 H       1  UNL1        0.0618
     29 H          -0.9115   -1.4715   -0.8532 H       1  UNL1        0.0625
     30 H           1.6619    0.5268   -2.3589 H       1  UNL1        0.0626
     31 H           3.8811    0.1257   -3.1697 H       1  UNL1        0.0620
     32 H           5.7034   -0.3673   -1.6705 H       1  UNL1        0.0685
     33 H           3.0140   -0.0500    1.5300 H       1  UNL1        0.0693
@<TRIPOS>UNITY_ATOM_ATTR
19 1
charge 1
21 1
charge -1
@<TRIPOS>BOND
     1     1     2    2
     2     2     3    1
     3     2    14    1
     4     3     4    1
     5     4     5   ar
     6     4    13   ar
     7     5     6   ar
     8     6     7   ar
     9     7     8   ar
    10     8     9   ar
    11     8    13   ar
    12     9    10   ar
    13    10    11   ar
    14    11    12   ar
    15    12    13   ar
    16    14    15   ar
    17    14    22   ar
    18    15    16   ar
    19    16    17   ar
    20    17    18   ar
    21    18    19    1
    22    18    22   ar
    23    19    20    2
    24    19    21    1
    25     5    23    1
    26     6    24    1
    27     7    25    1
    28     9    26    1
    29    10    27    1
    30    11    28    1
    31    12    29    1
    32    15    30    1
    33    16    31    1
    34    17    32    1
    35    22    33    1
