@<TRIPOS>MOLECULE
../data/bude_mols_rdkit_confs2/molecule_9.pdb
 33 35 0 0 0
SMALL
GASTEIGER

@<TRIPOS>ATOM
      1  O1        -3.6570    2.8330   -0.2780 O.2     1  UNL1       -0.2451
      2  C1        -4.0070    1.7230    0.1810 C.2     1  UNL1        0.3368
      3  O2        -5.1960    1.6760    0.9190 O.3     1  UNL1       -0.4771
      4  C2        -3.2010    0.5390   -0.0510 C.ar    1  UNL1        0.0591
      5  C3        -3.6110   -0.6700    0.4640 C.ar    1  UNL1       -0.0478
      6  C4        -2.8340   -1.8020    0.2390 C.ar    1  UNL1       -0.0607
      7  C5        -1.6500   -1.7040   -0.5050 C.ar    1  UNL1       -0.0582
      8  C6        -1.2480   -0.5060   -1.0120 C.ar    1  UNL1       -0.0407
      9  C7        -0.0210   -0.3500   -1.7780 C.3     1  UNL1        0.0171
     10  C8         1.0780    0.3610   -1.0940 C.ar    1  UNL1        0.0736
     11  N1         1.2030    1.7020   -1.3480 N.ar    1  UNL1       -0.1750
     12  N2         2.1310    2.4140   -0.7380 N.ar    1  UNL1       -0.2425
     13  C9         2.9930    1.8760    0.1510 C.ar    1  UNL1        0.2725
     14  O3         3.8730    2.5670    0.7260 O.2     1  UNL1       -0.2658
     15  C10        2.9330    0.5210    0.4630 C.ar    1  UNL1        0.0496
     16  C11        3.8120   -0.0480    1.3580 C.ar    1  UNL1       -0.0487
     17  C12        3.7330   -1.3960    1.6330 C.ar    1  UNL1       -0.0610
     18  C13        2.7580   -2.1240    0.9840 C.ar    1  UNL1       -0.0611
     19  C14        1.8780   -1.5520    0.0870 C.ar    1  UNL1       -0.0521
     20  C15        1.9490   -0.1980   -0.1940 C.ar    1  UNL1        0.0106
     21  C16       -2.0500    0.6080   -0.7680 C.ar    1  UNL1       -0.0442
     22 H          -5.4919    0.8633    1.2793 H       1  UNL1        0.2954
     23 H          -4.4841   -0.7359    1.0103 H       1  UNL1        0.0626
     24 H          -3.1295   -2.7144    0.6201 H       1  UNL1        0.0618
     25 H          -1.0781   -2.5471   -0.6699 H       1  UNL1        0.0620
     26 H          -0.2575    0.1917   -2.6699 H       1  UNL1        0.0377
     27 H           0.3398   -1.3419   -1.9538 H       1  UNL1        0.0377
     28 H           2.1976    3.3755   -0.9389 H       1  UNL1        0.1921
     29 H           4.5277    0.5336    1.8213 H       1  UNL1        0.0625
     30 H           4.3800   -1.8444    2.3004 H       1  UNL1        0.0618
     31 H           2.6833   -3.1352    1.1762 H       1  UNL1        0.0618
     32 H           1.1642   -2.1361   -0.3760 H       1  UNL1        0.0624
     33 H          -1.7571    1.5218   -1.1476 H       1  UNL1        0.0628
@<TRIPOS>BOND
     1     1     2    2
     2     2     3    1
     3     2     4    1
     4     4     5   ar
     5     4    21   ar
     6     5     6   ar
     7     6     7   ar
     8     7     8   ar
     9     8     9    1
    10     8    21   ar
    11     9    10    1
    12    10    11   ar
    13    10    20   ar
    14    11    12   ar
    15    12    13   ar
    16    13    14    2
    17    13    15   ar
    18    15    16   ar
    19    15    20   ar
    20    16    17   ar
    21    17    18   ar
    22    18    19   ar
    23    19    20   ar
    24     3    22    1
    25     5    23    1
    26     6    24    1
    27     7    25    1
    28     9    26    1
    29     9    27    1
    30    12    28    1
    31    16    29    1
    32    17    30    1
    33    18    31    1
    34    19    32    1
    35    21    33    1
@<TRIPOS>MOLECULE
../data/bude_mols_rdkit_confs2/molecule_9.pdb
 33 35 0 0 0
SMALL
GASTEIGER

@<TRIPOS>ATOM
      1  O1         3.0090    2.8200    1.5200 O.2     1  UNL1       -0.2451
      2  C1         3.6460    1.8100    1.1200 C.2     1  UNL1        0.3368
      3  O2         4.9160    1.6320    1.6410 O.3     1  UNL1       -0.4771
      4  C2         3.0210    0.9280    0.1640 C.ar    1  UNL1        0.0591
      5  C3         3.7170   -0.1830   -0.2580 C.ar    1  UNL1       -0.0478
      6  C4         3.1190   -1.0340   -1.1760 C.ar    1  UNL1       -0.0607
      7  C5         1.8550   -0.7420   -1.6310 C.ar    1  UNL1       -0.0582
      8  C6         1.1340    0.3870   -1.2080 C.ar    1  UNL1       -0.0407
      9  C7        -0.2020    0.5530   -1.8090 C.3     1  UNL1        0.0171
     10  C8        -1.2300   -0.3760   -1.2670 C.ar    1  UNL1        0.0736
     11  N1        -1.5190   -1.5450   -1.9200 N.ar    1  UNL1       -0.1750
     12  N2        -2.3940   -2.4230   -1.4510 N.ar    1  UNL1       -0.2425
     13  C9        -3.0560   -2.2350   -0.3160 C.ar    1  UNL1        0.2725
     14  O3        -3.8880   -3.1050    0.0990 O.2     1  UNL1       -0.2658
     15  C10       -2.8280   -1.0740    0.4160 C.ar    1  UNL1        0.0496
     16  C11       -3.4910   -0.8180    1.5890 C.ar    1  UNL1       -0.0487
     17  C12       -3.2900    0.3210    2.3100 C.ar    1  UNL1       -0.0610
     18  C13       -2.3790    1.2390    1.8210 C.ar    1  UNL1       -0.0611
     19  C14       -1.7040    0.9950    0.6420 C.ar    1  UNL1       -0.0521
     20  C15       -1.9010   -0.1560   -0.0920 C.ar    1  UNL1        0.0106
     21  C16        1.7450    1.2060   -0.3070 C.ar    1  UNL1       -0.0442
     22 H           5.4321    0.8962    1.3762 H       1  UNL1        0.2954
     23 H           4.6644   -0.3785    0.1015 H       1  UNL1        0.0626
     24 H           3.6156   -1.8738   -1.5124 H       1  UNL1        0.0618
     25 H           1.4166   -1.3802   -2.3133 H       1  UNL1        0.0620
     26 H          -0.1199    0.3860   -2.8627 H       1  UNL1        0.0377
     27 H          -0.5263    1.5449   -1.5726 H       1  UNL1        0.0377
     28 H          -2.5594   -3.2466   -1.9644 H       1  UNL1        0.1921
     29 H          -4.1677   -1.5142    1.9389 H       1  UNL1        0.0625
     30 H          -3.8002    0.4924    3.1906 H       1  UNL1        0.0618
     31 H          -2.2025    2.1127    2.3411 H       1  UNL1        0.0618
     32 H          -1.0298    1.6968    0.2984 H       1  UNL1        0.0624
     33 H           1.2512    2.0468    0.0309 H       1  UNL1        0.0628
@<TRIPOS>BOND
     1     1     2    2
     2     2     3    1
     3     2     4    1
     4     4     5   ar
     5     4    21   ar
     6     5     6   ar
     7     6     7   ar
     8     7     8   ar
     9     8     9    1
    10     8    21   ar
    11     9    10    1
    12    10    11   ar
    13    10    20   ar
    14    11    12   ar
    15    12    13   ar
    16    13    14    2
    17    13    15   ar
    18    15    16   ar
    19    15    20   ar
    20    16    17   ar
    21    17    18   ar
    22    18    19   ar
    23    19    20   ar
    24     3    22    1
    25     5    23    1
    26     6    24    1
    27     7    25    1
    28     9    26    1
    29     9    27    1
    30    12    28    1
    31    16    29    1
    32    17    30    1
    33    18    31    1
    34    19    32    1
    35    21    33    1
@<TRIPOS>MOLECULE
../data/bude_mols_rdkit_confs2/molecule_9.pdb
 33 35 0 0 0
SMALL
GASTEIGER

@<TRIPOS>ATOM
      1  O1         5.2990    1.0450   -0.9050 O.2     1  UNL1       -0.2451
      2  C1         4.2600    0.3710   -1.1450 C.2     1  UNL1        0.3368
      3  O2         4.0890   -0.0420   -2.4600 O.3     1  UNL1       -0.4771
      4  C2         3.2900    0.0390   -0.1110 C.ar    1  UNL1        0.0591
      5  C3         3.5390    0.4890    1.1670 C.ar    1  UNL1       -0.0478
      6  C4         2.6730    0.2240    2.2190 C.ar    1  UNL1       -0.0607
      7  C5         1.5300   -0.5260    1.9140 C.ar    1  UNL1       -0.0582
      8  C6         1.2490   -0.9880    0.6650 C.ar    1  UNL1       -0.0407
      9  C7         0.0230   -1.7590    0.4090 C.3     1  UNL1        0.0171
     10  C8        -0.9910   -1.1060   -0.4150 C.ar    1  UNL1        0.0736
     11  N1        -1.0410   -1.3730   -1.7550 N.ar    1  UNL1       -0.1750
     12  N2        -1.8950   -0.8000   -2.5790 N.ar    1  UNL1       -0.2425
     13  C9        -2.8000    0.1060   -2.1720 C.ar    1  UNL1        0.2725
     14  O3        -3.6030    0.6370   -2.9810 O.2     1  UNL1       -0.2658
     15  C10       -2.8060    0.4250   -0.8160 C.ar    1  UNL1        0.0496
     16  C11       -3.7440    1.3460   -0.4020 C.ar    1  UNL1       -0.0487
     17  C12       -3.8060    1.6950    0.9370 C.ar    1  UNL1       -0.0610
     18  C13       -2.9040    1.0790    1.7750 C.ar    1  UNL1       -0.0611
     19  C14       -1.9660    0.1640    1.3890 C.ar    1  UNL1       -0.0521
     20  C15       -1.8990   -0.1880    0.0370 C.ar    1  UNL1        0.0106
     21  C16        2.1540   -0.6930   -0.3580 C.ar    1  UNL1       -0.0442
     22 H           3.3359   -0.5459   -2.6987 H       1  UNL1        0.2954
     23 H           4.3936    1.0387    1.3474 H       1  UNL1        0.0626
     24 H           2.8614    0.5619    3.1757 H       1  UNL1        0.0618
     25 H           0.8669   -0.7392    2.6755 H       1  UNL1        0.0620
     26 H          -0.4225   -1.9868    1.3548 H       1  UNL1        0.0377
     27 H           0.3361   -2.6164   -0.1494 H       1  UNL1        0.0377
     28 H          -1.8688   -1.0458   -3.5320 H       1  UNL1        0.1921
     29 H          -4.3932    1.7711   -1.0823 H       1  UNL1        0.0625
     30 H          -4.4925    2.3809    1.2881 H       1  UNL1        0.0618
     31 H          -2.9393    1.3287    2.7757 H       1  UNL1        0.0618
     32 H          -1.3229   -0.2570    2.0777 H       1  UNL1        0.0624
     33 H           1.9659   -1.0306   -1.3149 H       1  UNL1        0.0628
@<TRIPOS>BOND
     1     1     2    2
     2     2     3    1
     3     2     4    1
     4     4     5   ar
     5     4    21   ar
     6     5     6   ar
     7     6     7   ar
     8     7     8   ar
     9     8     9    1
    10     8    21   ar
    11     9    10    1
    12    10    11   ar
    13    10    20   ar
    14    11    12   ar
    15    12    13   ar
    16    13    14    2
    17    13    15   ar
    18    15    16   ar
    19    15    20   ar
    20    16    17   ar
    21    17    18   ar
    22    18    19   ar
    23    19    20   ar
    24     3    22    1
    25     5    23    1
    26     6    24    1
    27     7    25    1
    28     9    26    1
    29     9    27    1
    30    12    28    1
    31    16    29    1
    32    17    30    1
    33    18    31    1
    34    19    32    1
    35    21    33    1
@<TRIPOS>MOLECULE
../data/bude_mols_rdkit_confs2/molecule_9.pdb
 33 35 0 0 0
SMALL
GASTEIGER

@<TRIPOS>ATOM
      1  O1         5.8050    0.8560    0.8240 O.2     1  UNL1       -0.2451
      2  C1         4.6640    0.5010    1.1980 C.2     1  UNL1        0.3368
      3  O2         4.4100    0.4770    2.5510 O.3     1  UNL1       -0.4771
      4  C2         3.6780    0.1380    0.1960 C.ar    1  UNL1        0.0591
      5  C3         4.0110    0.1890   -1.1350 C.ar    1  UNL1       -0.0478
      6  C4         3.1220   -0.1430   -2.1490 C.ar    1  UNL1       -0.0607
      7  C5         1.8600   -0.5360   -1.7460 C.ar    1  UNL1       -0.0582
      8  C6         1.4870   -0.6000   -0.4190 C.ar    1  UNL1       -0.0407
      9  C7         0.1280   -1.0270   -0.0890 C.3     1  UNL1        0.0171
     10  C8        -0.8500    0.0850   -0.0160 C.ar    1  UNL1        0.0736
     11  N1        -0.5700    1.3600   -0.2210 N.ar    1  UNL1       -0.1750
     12  N2        -1.4730    2.3210   -0.1460 N.ar    1  UNL1       -0.2425
     13  C9        -2.7570    2.0410    0.1520 C.ar    1  UNL1        0.2725
     14  O3        -3.5980    2.9860    0.2160 O.2     1  UNL1       -0.2658
     15  C10       -3.1030    0.7240    0.3760 C.ar    1  UNL1        0.0496
     16  C11       -4.4160    0.4160    0.6820 C.ar    1  UNL1       -0.0487
     17  C12       -4.7380   -0.8970    0.9000 C.ar    1  UNL1       -0.0610
     18  C13       -3.8150   -1.9130    0.8270 C.ar    1  UNL1       -0.0611
     19  C14       -2.5150   -1.5840    0.5210 C.ar    1  UNL1       -0.0521
     20  C15       -2.1510   -0.2650    0.2930 C.ar    1  UNL1        0.0106
     21  C16        2.4150   -0.2570    0.5480 C.ar    1  UNL1       -0.0442
     22 H           3.5665    0.2162    2.8648 H       1  UNL1        0.2954
     23 H           4.9645    0.4874   -1.3935 H       1  UNL1        0.0626
     24 H           3.3883   -0.0988   -3.1451 H       1  UNL1        0.0618
     25 H           1.1678   -0.7922   -2.4673 H       1  UNL1        0.0620
     26 H           0.1507   -1.5186    0.8611 H       1  UNL1        0.0377
     27 H          -0.1948   -1.6733   -0.8783 H       1  UNL1        0.0377
     28 H          -1.2045    3.2539   -0.3099 H       1  UNL1        0.1921
     29 H          -5.1334    1.1553    0.7443 H       1  UNL1        0.0625
     30 H          -5.7160   -1.1340    1.1290 H       1  UNL1        0.0618
     31 H          -4.0892   -2.8933    0.9967 H       1  UNL1        0.0618
     32 H          -1.8018   -2.3274    0.4603 H       1  UNL1        0.0624
     33 H           2.1526   -0.2993    1.5452 H       1  UNL1        0.0628
@<TRIPOS>BOND
     1     1     2    2
     2     2     3    1
     3     2     4    1
     4     4     5   ar
     5     4    21   ar
     6     5     6   ar
     7     6     7   ar
     8     7     8   ar
     9     8     9    1
    10     8    21   ar
    11     9    10    1
    12    10    11   ar
    13    10    20   ar
    14    11    12   ar
    15    12    13   ar
    16    13    14    2
    17    13    15   ar
    18    15    16   ar
    19    15    20   ar
    20    16    17   ar
    21    17    18   ar
    22    18    19   ar
    23    19    20   ar
    24     3    22    1
    25     5    23    1
    26     6    24    1
    27     7    25    1
    28     9    26    1
    29     9    27    1
    30    12    28    1
    31    16    29    1
    32    17    30    1
    33    18    31    1
    34    19    32    1
    35    21    33    1
@<TRIPOS>MOLECULE
../data/bude_mols_rdkit_confs2/molecule_9.pdb
 33 35 0 0 0
SMALL
GASTEIGER

@<TRIPOS>ATOM
      1  O1         4.2910    0.1820    2.2420 O.2     1  UNL1       -0.2451
      2  C1         4.5770    0.4680    1.0510 C.2     1  UNL1        0.3368
      3  O2         5.8310    0.9900    0.7670 O.3     1  UNL1       -0.4771
      4  C2         3.5870    0.2470   -0.0240 C.ar    1  UNL1        0.0591
      5  C3         3.9110    0.5630   -1.3200 C.ar    1  UNL1       -0.0478
      6  C4         2.9700    0.3500   -2.3250 C.ar    1  UNL1       -0.0607
      7  C5         1.7210   -0.1760   -2.0000 C.ar    1  UNL1       -0.0582
      8  C6         1.3840   -0.4970   -0.6920 C.ar    1  UNL1       -0.0407
      9  C7         0.0480   -1.0570   -0.3640 C.3     1  UNL1        0.0171
     10  C8        -0.8990    0.0560   -0.0620 C.ar    1  UNL1        0.0736
     11  N1        -0.5360    1.3440   -0.0980 N.ar    1  UNL1       -0.1750
     12  N2        -1.3270    2.3690    0.1580 N.ar    1  UNL1       -0.2425
     13  C9        -2.6020    2.1080    0.4830 C.ar    1  UNL1        0.2725
     14  O3        -3.3940    3.0520    0.7370 O.2     1  UNL1       -0.2658
     15  C10       -3.0610    0.8010    0.5440 C.ar    1  UNL1        0.0496
     16  C11       -4.3700    0.5080    0.8770 C.ar    1  UNL1       -0.0487
     17  C12       -4.8490   -0.7800    0.9440 C.ar    1  UNL1       -0.0610
     18  C13       -3.9770   -1.8090    0.6660 C.ar    1  UNL1       -0.0611
     19  C14       -2.6560   -1.5310    0.3290 C.ar    1  UNL1       -0.0521
     20  C15       -2.1930   -0.2340    0.2670 C.ar    1  UNL1        0.0106
     21  C16        2.3510   -0.2680    0.2650 C.ar    1  UNL1       -0.0442
     22 H           6.0589    1.2080   -0.1153 H       1  UNL1        0.2954
     23 H           4.8391    0.9531   -1.5468 H       1  UNL1        0.0626
     24 H           3.1966    0.5805   -3.3051 H       1  UNL1        0.0618
     25 H           1.0295   -0.3307   -2.7502 H       1  UNL1        0.0620
     26 H           0.1296   -1.6970    0.4896 H       1  UNL1        0.0377
     27 H          -0.3172   -1.6187   -1.1983 H       1  UNL1        0.0377
     28 H          -0.9926    3.2938    0.1120 H       1  UNL1        0.1921
     29 H          -5.0144    1.2871    1.0838 H       1  UNL1        0.0625
     30 H          -5.8320   -0.9693    1.1950 H       1  UNL1        0.0618
     31 H          -4.3036   -2.7871    0.7077 H       1  UNL1        0.0618
     32 H          -2.0112   -2.3097    0.1217 H       1  UNL1        0.0624
     33 H           2.1323   -0.4960    1.2474 H       1  UNL1        0.0628
@<TRIPOS>BOND
     1     1     2    2
     2     2     3    1
     3     2     4    1
     4     4     5   ar
     5     4    21   ar
     6     5     6   ar
     7     6     7   ar
     8     7     8   ar
     9     8     9    1
    10     8    21   ar
    11     9    10    1
    12    10    11   ar
    13    10    20   ar
    14    11    12   ar
    15    12    13   ar
    16    13    14    2
    17    13    15   ar
    18    15    16   ar
    19    15    20   ar
    20    16    17   ar
    21    17    18   ar
    22    18    19   ar
    23    19    20   ar
    24     3    22    1
    25     5    23    1
    26     6    24    1
    27     7    25    1
    28     9    26    1
    29     9    27    1
    30    12    28    1
    31    16    29    1
    32    17    30    1
    33    18    31    1
    34    19    32    1
    35    21    33    1
@<TRIPOS>MOLECULE
../data/bude_mols_rdkit_confs2/molecule_9.pdb
 33 35 0 0 0
SMALL
GASTEIGER

@<TRIPOS>ATOM
      1  O1         4.2580   -1.8230    0.9430 O.2     1  UNL1       -0.2451
      2  C1         4.3100   -1.1930   -0.1740 C.2     1  UNL1        0.3368
      3  O2         5.3280   -1.5020   -1.0260 O.3     1  UNL1       -0.4771
      4  C2         3.2610   -0.2070   -0.4090 C.ar    1  UNL1        0.0591
      5  C3         3.2580    0.5270   -1.5910 C.ar    1  UNL1       -0.0478
      6  C4         2.2870    1.4520   -1.8370 C.ar    1  UNL1       -0.0607
      7  C5         1.2620    1.6880   -0.9020 C.ar    1  UNL1       -0.0582
      8  C6         1.2370    0.9840    0.2680 C.ar    1  UNL1       -0.0407
      9  C7         0.2100    1.1060    1.3480 C.3     1  UNL1        0.0171
     10  C8        -0.8250    0.0600    1.2900 C.ar    1  UNL1        0.0736
     11  N1        -0.6410   -1.0950    1.9930 N.ar    1  UNL1       -0.1750
     12  N2        -1.4840   -2.1000    1.9310 N.ar    1  UNL1       -0.2425
     13  C9        -2.5690   -2.0280    1.1690 C.ar    1  UNL1        0.2725
     14  O3        -3.3820   -3.0080    1.1140 O.2     1  UNL1       -0.2658
     15  C10       -2.8570   -0.9100    0.4180 C.ar    1  UNL1        0.0496
     16  C11       -3.9980   -0.8380   -0.3580 C.ar    1  UNL1       -0.0487
     17  C12       -4.2310    0.3140   -1.0610 C.ar    1  UNL1       -0.0610
     18  C13       -3.3350    1.3590   -0.9810 C.ar    1  UNL1       -0.0611
     19  C14       -2.2010    1.2970   -0.2160 C.ar    1  UNL1       -0.0521
     20  C15       -1.9390    0.1480    0.5040 C.ar    1  UNL1        0.0106
     21  C16        2.2620    0.0450    0.4680 C.ar    1  UNL1       -0.0442
     22 H           5.3984   -1.0627   -1.8507 H       1  UNL1        0.2954
     23 H           4.0002    0.3693   -2.2905 H       1  UNL1        0.0626
     24 H           2.3039    1.9858   -2.7200 H       1  UNL1        0.0618
     25 H           0.5321    2.3903   -1.0997 H       1  UNL1        0.0620
     26 H          -0.2661    2.0600    1.2574 H       1  UNL1        0.0377
     27 H           0.7191    0.9959    2.2827 H       1  UNL1        0.0377
     28 H          -1.3097   -2.9151    2.4549 H       1  UNL1        0.1921
     29 H          -4.6568   -1.6309   -0.4065 H       1  UNL1        0.0625
     30 H          -5.0748    0.3997   -1.6490 H       1  UNL1        0.0618
     31 H          -3.5261    2.2196   -1.5175 H       1  UNL1        0.0618
     32 H          -1.5511    2.0978   -0.1780 H       1  UNL1        0.0624
     33 H           2.2525   -0.4925    1.3489 H       1  UNL1        0.0628
@<TRIPOS>BOND
     1     1     2    2
     2     2     3    1
     3     2     4    1
     4     4     5   ar
     5     4    21   ar
     6     5     6   ar
     7     6     7   ar
     8     7     8   ar
     9     8     9    1
    10     8    21   ar
    11     9    10    1
    12    10    11   ar
    13    10    20   ar
    14    11    12   ar
    15    12    13   ar
    16    13    14    2
    17    13    15   ar
    18    15    16   ar
    19    15    20   ar
    20    16    17   ar
    21    17    18   ar
    22    18    19   ar
    23    19    20   ar
    24     3    22    1
    25     5    23    1
    26     6    24    1
    27     7    25    1
    28     9    26    1
    29     9    27    1
    30    12    28    1
    31    16    29    1
    32    17    30    1
    33    18    31    1
    34    19    32    1
    35    21    33    1
@<TRIPOS>MOLECULE
../data/bude_mols_rdkit_confs2/molecule_9.pdb
 33 35 0 0 0
SMALL
GASTEIGER

@<TRIPOS>ATOM
      1  O1         5.1650    1.3570    0.9800 O.2     1  UNL1       -0.2451
      2  C1         4.1720    1.0870    0.2550 C.2     1  UNL1        0.3368
      3  O2         3.9870    1.7990   -0.9250 O.3     1  UNL1       -0.4771
      4  C2         3.2320    0.0510    0.6400 C.ar    1  UNL1        0.0591
      5  C3         3.3930   -0.6700    1.8060 C.ar    1  UNL1       -0.0478
      6  C4         2.4810   -1.6440    2.1390 C.ar    1  UNL1       -0.0607
      7  C5         1.4040   -1.9220    1.3320 C.ar    1  UNL1       -0.0582
      8  C6         1.2140   -1.2130    0.1510 C.ar    1  UNL1       -0.0407
      9  C7         0.0970   -1.4960   -0.7520 C.3     1  UNL1        0.0171
     10  C8        -1.2300   -1.1180   -0.2770 C.ar    1  UNL1        0.0736
     11  N1        -1.9980   -2.0900    0.3050 N.ar    1  UNL1       -0.1750
     12  N2        -3.1980   -1.8510    0.8020 N.ar    1  UNL1       -0.2425
     13  C9        -3.7670   -0.6400    0.7810 C.ar    1  UNL1        0.2725
     14  O3        -4.9270   -0.4780    1.2790 O.2     1  UNL1       -0.2658
     15  C10       -3.0540    0.3900    0.2110 C.ar    1  UNL1        0.0496
     16  C11       -3.6060    1.6530    0.1570 C.ar    1  UNL1       -0.0487
     17  C12       -2.9160    2.7110   -0.4230 C.ar    1  UNL1       -0.0610
     18  C13       -1.6680    2.4460   -0.9390 C.ar    1  UNL1       -0.0611
     19  C14       -1.1030    1.1730   -0.8900 C.ar    1  UNL1       -0.0521
     20  C15       -1.7870    0.1270   -0.3130 C.ar    1  UNL1        0.0106
     21  C16        2.1400   -0.2500   -0.1520 C.ar    1  UNL1       -0.0442
     22 H           3.2529    1.6103   -1.4759 H       1  UNL1        0.2954
     23 H           4.1954   -0.4787    2.4261 H       1  UNL1        0.0626
     24 H           2.6081   -2.1773    3.0133 H       1  UNL1        0.0618
     25 H           0.7344   -2.6590    1.6032 H       1  UNL1        0.0620
     26 H           0.0883   -2.5494   -0.9396 H       1  UNL1        0.0377
     27 H           0.2717   -0.8942   -1.6193 H       1  UNL1        0.0377
     28 H          -3.6965   -2.5975    1.2062 H       1  UNL1        0.1921
     29 H          -4.5451    1.8147    0.5531 H       1  UNL1        0.0625
     30 H          -3.3236    3.6582   -0.4651 H       1  UNL1        0.0618
     31 H          -1.1341    3.2136   -1.3757 H       1  UNL1        0.0618
     32 H          -0.1649    1.0133   -1.2893 H       1  UNL1        0.0624
     33 H           2.0144    0.2840   -1.0261 H       1  UNL1        0.0628
@<TRIPOS>BOND
     1     1     2    2
     2     2     3    1
     3     2     4    1
     4     4     5   ar
     5     4    21   ar
     6     5     6   ar
     7     6     7   ar
     8     7     8   ar
     9     8     9    1
    10     8    21   ar
    11     9    10    1
    12    10    11   ar
    13    10    20   ar
    14    11    12   ar
    15    12    13   ar
    16    13    14    2
    17    13    15   ar
    18    15    16   ar
    19    15    20   ar
    20    16    17   ar
    21    17    18   ar
    22    18    19   ar
    23    19    20   ar
    24     3    22    1
    25     5    23    1
    26     6    24    1
    27     7    25    1
    28     9    26    1
    29     9    27    1
    30    12    28    1
    31    16    29    1
    32    17    30    1
    33    18    31    1
    34    19    32    1
    35    21    33    1
@<TRIPOS>MOLECULE
../data/bude_mols_rdkit_confs2/molecule_9.pdb
 33 35 0 0 0
SMALL
GASTEIGER

@<TRIPOS>ATOM
      1  O1         5.1840    0.3910   -1.3210 O.2     1  UNL1       -0.2451
      2  C1         4.2630    0.5670   -0.4990 C.2     1  UNL1        0.3368
      3  O2         4.2940    1.7690    0.2370 O.3     1  UNL1       -0.4771
      4  C2         3.1910   -0.3830   -0.2730 C.ar    1  UNL1        0.0591
      5  C3         3.1040   -1.5740   -0.9540 C.ar    1  UNL1       -0.0478
      6  C4         2.0610   -2.4580   -0.7250 C.ar    1  UNL1       -0.0607
      7  C5         1.0660   -2.1750    0.1990 C.ar    1  UNL1       -0.0582
      8  C6         1.1330   -0.9990    0.8850 C.ar    1  UNL1       -0.0407
      9  C7         0.1470   -0.5310    1.8940 C.3     1  UNL1        0.0171
     10  C8        -0.7100    0.5290    1.3190 C.ar    1  UNL1        0.0736
     11  N1        -0.3950    1.8450    1.4780 N.ar    1  UNL1       -0.1750
     12  N2        -1.0930    2.8230    0.9410 N.ar    1  UNL1       -0.2425
     13  C9        -2.1800    2.5800    0.1890 C.ar    1  UNL1        0.2725
     14  O3        -2.8330    3.5530   -0.3170 O.2     1  UNL1       -0.2658
     15  C10       -2.5760    1.2760   -0.0250 C.ar    1  UNL1        0.0496
     16  C11       -3.7010    1.0290   -0.7820 C.ar    1  UNL1       -0.0487
     17  C12       -4.0750   -0.2940   -0.9560 C.ar    1  UNL1       -0.0610
     18  C13       -3.3640   -1.3320   -0.4030 C.ar    1  UNL1       -0.0611
     19  C14       -2.2510   -1.0260    0.3420 C.ar    1  UNL1       -0.0521
     20  C15       -1.8140    0.2590    0.5590 C.ar    1  UNL1        0.0106
     21  C16        2.1990   -0.1200    0.6360 C.ar    1  UNL1       -0.0442
     22 H           3.6249    1.9496    0.8676 H       1  UNL1        0.2954
     23 H           3.8285   -1.8144   -1.6485 H       1  UNL1        0.0626
     24 H           2.0241   -3.3442   -1.2525 H       1  UNL1        0.0618
     25 H           0.2933   -2.8390    0.3632 H       1  UNL1        0.0620
     26 H           0.6684   -0.1417    2.7434 H       1  UNL1        0.0377
     27 H          -0.4683   -1.3553    2.1887 H       1  UNL1        0.0377
     28 H          -0.8123    3.7542    1.0937 H       1  UNL1        0.1921
     29 H          -4.2437    1.7993   -1.2029 H       1  UNL1        0.0625
     30 H          -4.9137   -0.5064   -1.5185 H       1  UNL1        0.0618
     31 H          -3.6572   -2.3115   -0.5431 H       1  UNL1        0.0618
     32 H          -1.7147   -1.8019    0.7608 H       1  UNL1        0.0624
     33 H           2.2377    0.7667    1.1625 H       1  UNL1        0.0628
@<TRIPOS>BOND
     1     1     2    2
     2     2     3    1
     3     2     4    1
     4     4     5   ar
     5     4    21   ar
     6     5     6   ar
     7     6     7   ar
     8     7     8   ar
     9     8     9    1
    10     8    21   ar
    11     9    10    1
    12    10    11   ar
    13    10    20   ar
    14    11    12   ar
    15    12    13   ar
    16    13    14    2
    17    13    15   ar
    18    15    16   ar
    19    15    20   ar
    20    16    17   ar
    21    17    18   ar
    22    18    19   ar
    23    19    20   ar
    24     3    22    1
    25     5    23    1
    26     6    24    1
    27     7    25    1
    28     9    26    1
    29     9    27    1
    30    12    28    1
    31    16    29    1
    32    17    30    1
    33    18    31    1
    34    19    32    1
    35    21    33    1
@<TRIPOS>MOLECULE
../data/bude_mols_rdkit_confs2/molecule_9.pdb
 33 35 0 0 0
SMALL
GASTEIGER

@<TRIPOS>ATOM
      1  O1         4.0110    1.8710    0.2360 O.2     1  UNL1       -0.2451
      2  C1         4.0750    0.9340   -0.6020 C.2     1  UNL1        0.3368
      3  O2         5.0780    0.9760   -1.5300 O.3     1  UNL1       -0.4771
      4  C2         3.0990   -0.1480   -0.5620 C.ar    1  UNL1        0.0591
      5  C3         3.1220   -1.1890   -1.4480 C.ar    1  UNL1       -0.0478
      6  C4         2.1520   -2.1810   -1.3390 C.ar    1  UNL1       -0.0607
      7  C5         1.1810   -2.1550   -0.3850 C.ar    1  UNL1       -0.0582
      8  C6         1.1410   -1.0980    0.5300 C.ar    1  UNL1       -0.0407
      9  C7         0.0970   -1.0970    1.5790 C.3     1  UNL1        0.0171
     10  C8        -1.2440   -0.8520    1.0020 C.ar    1  UNL1        0.0736
     11  N1        -2.0340   -1.9350    0.7070 N.ar    1  UNL1       -0.1750
     12  N2        -3.2210   -1.8180    0.1510 N.ar    1  UNL1       -0.2425
     13  C9        -3.7470   -0.6330   -0.1690 C.ar    1  UNL1        0.2725
     14  O3        -4.8780   -0.5560   -0.6980 O.2     1  UNL1       -0.2658
     15  C10       -3.0090    0.4960    0.1000 C.ar    1  UNL1        0.0496
     16  C11       -3.5130    1.7470   -0.2000 C.ar    1  UNL1       -0.0487
     17  C12       -2.7670    2.8680    0.0900 C.ar    1  UNL1       -0.0610
     18  C13       -1.5240    2.7390    0.6750 C.ar    1  UNL1       -0.0611
     19  C14       -1.0080    1.5030    0.9790 C.ar    1  UNL1       -0.0521
     20  C15       -1.7460    0.3810    0.6920 C.ar    1  UNL1        0.0106
     21  C16        2.0930   -0.1390    0.4120 C.ar    1  UNL1       -0.0442
     22 H           5.1545    0.2944   -2.1684 H       1  UNL1        0.2954
     23 H           3.8445   -1.2382   -2.1832 H       1  UNL1        0.0626
     24 H           2.1694   -2.9671   -2.0075 H       1  UNL1        0.0618
     25 H           0.4792   -2.9102   -0.3374 H       1  UNL1        0.0620
     26 H           0.3170   -0.3274    2.2891 H       1  UNL1        0.0377
     27 H           0.0915   -2.0571    2.0513 H       1  UNL1        0.0377
     28 H          -3.7399   -2.6335   -0.0358 H       1  UNL1        0.1921
     29 H          -4.4424    1.8409   -0.6386 H       1  UNL1        0.0625
     30 H          -3.1381    3.8054   -0.1305 H       1  UNL1        0.0618
     31 H          -0.9729    3.5852    0.8876 H       1  UNL1        0.0618
     32 H          -0.0776    1.4185    1.4175 H       1  UNL1        0.0624
     33 H           2.0748    0.6460    1.0817 H       1  UNL1        0.0628
@<TRIPOS>BOND
     1     1     2    2
     2     2     3    1
     3     2     4    1
     4     4     5   ar
     5     4    21   ar
     6     5     6   ar
     7     6     7   ar
     8     7     8   ar
     9     8     9    1
    10     8    21   ar
    11     9    10    1
    12    10    11   ar
    13    10    20   ar
    14    11    12   ar
    15    12    13   ar
    16    13    14    2
    17    13    15   ar
    18    15    16   ar
    19    15    20   ar
    20    16    17   ar
    21    17    18   ar
    22    18    19   ar
    23    19    20   ar
    24     3    22    1
    25     5    23    1
    26     6    24    1
    27     7    25    1
    28     9    26    1
    29     9    27    1
    30    12    28    1
    31    16    29    1
    32    17    30    1
    33    18    31    1
    34    19    32    1
    35    21    33    1
@<TRIPOS>MOLECULE
../data/bude_mols_rdkit_confs2/molecule_9.pdb
 33 35 0 0 0
SMALL
GASTEIGER

@<TRIPOS>ATOM
      1  O1         5.7470    1.6760    0.5020 O.2     1  UNL1       -0.2451
      2  C1         4.9660    0.9780   -0.2340 C.2     1  UNL1        0.3368
      3  O2         5.4980    0.3350   -1.3220 O.3     1  UNL1       -0.4771
      4  C2         3.5390    0.9150    0.1460 C.ar    1  UNL1        0.0591
      5  C3         3.0780    1.5930    1.2530 C.ar    1  UNL1       -0.0478
      6  C4         1.7520    1.5290    1.6020 C.ar    1  UNL1       -0.0607
      7  C5         0.8680    0.7710    0.8250 C.ar    1  UNL1       -0.0582
      8  C6         1.2800    0.0810   -0.2830 C.ar    1  UNL1       -0.0407
      9  C7         0.4310   -0.7200   -1.1780 C.3     1  UNL1        0.0171
     10  C8        -0.7580   -1.3280   -0.5730 C.ar    1  UNL1        0.0736
     11  N1        -0.7720   -2.6000   -0.1180 N.ar    1  UNL1       -0.1750
     12  N2        -1.8510   -3.1090    0.4420 N.ar    1  UNL1       -0.2425
     13  C9        -2.9810   -2.4020    0.5890 C.ar    1  UNL1        0.2725
     14  O3        -4.0230   -2.8780    1.1250 O.2     1  UNL1       -0.2658
     15  C10       -3.0520   -1.0880    0.1490 C.ar    1  UNL1        0.0496
     16  C11       -4.2230   -0.3680    0.2890 C.ar    1  UNL1       -0.0487
     17  C12       -4.2740    0.9290   -0.1730 C.ar    1  UNL1       -0.0610
     18  C13       -3.1570    1.4830   -0.7630 C.ar    1  UNL1       -0.0611
     19  C14       -1.9960    0.7550   -0.8960 C.ar    1  UNL1       -0.0521
     20  C15       -1.9170   -0.5550   -0.4400 C.ar    1  UNL1        0.0106
     21  C16        2.6470    0.1880   -0.5860 C.ar    1  UNL1       -0.0442
     22 H           4.9471   -0.1820   -1.8762 H       1  UNL1        0.2954
     23 H           3.7326    2.1516    1.8226 H       1  UNL1        0.0626
     24 H           1.4088    2.0367    2.4323 H       1  UNL1        0.0618
     25 H          -0.1269    0.7311    1.0965 H       1  UNL1        0.0620
     26 H           1.0327   -1.5090   -1.5785 H       1  UNL1        0.0377
     27 H           0.0595   -0.0331   -1.9094 H       1  UNL1        0.0377
     28 H          -1.8266   -4.0393    0.7631 H       1  UNL1        0.1921
     29 H          -5.0495   -0.7966    0.7343 H       1  UNL1        0.0625
     30 H          -5.1406    1.4814   -0.0784 H       1  UNL1        0.0618
     31 H          -3.1920    2.4547   -1.1088 H       1  UNL1        0.0618
     32 H          -1.1722    1.1889   -1.3410 H       1  UNL1        0.0624
     33 H           2.9990   -0.3155   -1.4152 H       1  UNL1        0.0628
@<TRIPOS>BOND
     1     1     2    2
     2     2     3    1
     3     2     4    1
     4     4     5   ar
     5     4    21   ar
     6     5     6   ar
     7     6     7   ar
     8     7     8   ar
     9     8     9    1
    10     8    21   ar
    11     9    10    1
    12    10    11   ar
    13    10    20   ar
    14    11    12   ar
    15    12    13   ar
    16    13    14    2
    17    13    15   ar
    18    15    16   ar
    19    15    20   ar
    20    16    17   ar
    21    17    18   ar
    22    18    19   ar
    23    19    20   ar
    24     3    22    1
    25     5    23    1
    26     6    24    1
    27     7    25    1
    28     9    26    1
    29     9    27    1
    30    12    28    1
    31    16    29    1
    32    17    30    1
    33    18    31    1
    34    19    32    1
    35    21    33    1
@<TRIPOS>MOLECULE
../data/bude_mols_rdkit_confs2/molecule_9.pdb
 33 35 0 0 0
SMALL
GASTEIGER

@<TRIPOS>ATOM
      1  O1         5.0160    1.7230   -0.7230 O.2     1  UNL1       -0.2451
      2  C1         3.9020    1.7440   -0.1490 C.2     1  UNL1        0.3368
      3  O2         3.4110    2.9880    0.2500 O.3     1  UNL1       -0.4771
      4  C2         3.1930    0.4970    0.0690 C.ar    1  UNL1        0.0591
      5  C3         3.7400   -0.6740   -0.3690 C.ar    1  UNL1       -0.0478
      6  C4         3.0860   -1.8740   -0.1740 C.ar    1  UNL1       -0.0607
      7  C5         1.8690   -1.8790    0.4720 C.ar    1  UNL1       -0.0582
      8  C6         1.2680   -0.6960    0.9400 C.ar    1  UNL1       -0.0407
      9  C7        -0.0140   -0.8570    1.6160 C.3     1  UNL1        0.0171
     10  C8        -1.1810   -1.0530    0.7600 C.ar    1  UNL1        0.0736
     11  N1        -1.6130   -2.3210    0.4670 N.ar    1  UNL1       -0.1750
     12  N2        -2.6260   -2.5510   -0.3440 N.ar    1  UNL1       -0.2425
     13  C9        -3.2890   -1.5600   -0.9270 C.ar    1  UNL1        0.2725
     14  O3        -4.2570   -1.7900   -1.7040 O.2     1  UNL1       -0.2658
     15  C10       -2.9310   -0.2520   -0.6930 C.ar    1  UNL1        0.0496
     16  C11       -3.6470    0.7550   -1.3000 C.ar    1  UNL1       -0.0487
     17  C12       -3.2700    2.0540   -1.0300 C.ar    1  UNL1       -0.0610
     18  C13       -2.2100    2.3210   -0.1780 C.ar    1  UNL1       -0.0611
     19  C14       -1.5060    1.2840    0.4190 C.ar    1  UNL1       -0.0521
     20  C15       -1.8530   -0.0230    0.1710 C.ar    1  UNL1        0.0106
     21  C16        1.9630    0.4500    0.7160 C.ar    1  UNL1       -0.0442
     22 H           2.5819    3.0477    0.6824 H       1  UNL1        0.2954
     23 H           4.6524   -0.6623   -0.8512 H       1  UNL1        0.0626
     24 H           3.5036   -2.7567   -0.5080 H       1  UNL1        0.0618
     25 H           1.3834   -2.7780    0.6170 H       1  UNL1        0.0620
     26 H          -0.1849    0.0213    2.2028 H       1  UNL1        0.0377
     27 H           0.0761   -1.7595    2.1836 H       1  UNL1        0.0377
     28 H          -2.8975   -3.4805   -0.5217 H       1  UNL1        0.1921
     29 H          -4.4352    0.5461   -1.9325 H       1  UNL1        0.0625
     30 H          -3.7828    2.8356   -1.4672 H       1  UNL1        0.0618
     31 H          -1.9418    3.2988    0.0142 H       1  UNL1        0.0618
     32 H          -0.7186    1.4952    1.0518 H       1  UNL1        0.0624
     33 H           1.5537    1.3382    1.0456 H       1  UNL1        0.0628
@<TRIPOS>BOND
     1     1     2    2
     2     2     3    1
     3     2     4    1
     4     4     5   ar
     5     4    21   ar
     6     5     6   ar
     7     6     7   ar
     8     7     8   ar
     9     8     9    1
    10     8    21   ar
    11     9    10    1
    12    10    11   ar
    13    10    20   ar
    14    11    12   ar
    15    12    13   ar
    16    13    14    2
    17    13    15   ar
    18    15    16   ar
    19    15    20   ar
    20    16    17   ar
    21    17    18   ar
    22    18    19   ar
    23    19    20   ar
    24     3    22    1
    25     5    23    1
    26     6    24    1
    27     7    25    1
    28     9    26    1
    29     9    27    1
    30    12    28    1
    31    16    29    1
    32    17    30    1
    33    18    31    1
    34    19    32    1
    35    21    33    1
@<TRIPOS>MOLECULE
../data/bude_mols_rdkit_confs2/molecule_9.pdb
 33 35 0 0 0
SMALL
GASTEIGER

@<TRIPOS>ATOM
      1  O1         5.5570    0.2500    1.0370 O.2     1  UNL1       -0.2451
      2  C1         4.5760    0.6780    0.3550 C.2     1  UNL1        0.3368
      3  O2         4.6900    1.9580   -0.1720 O.3     1  UNL1       -0.4771
      4  C2         3.4200   -0.1810    0.1720 C.ar    1  UNL1        0.0591
      5  C3         3.3640   -1.4370    0.7320 C.ar    1  UNL1       -0.0478
      6  C4         2.2680   -2.2620    0.5520 C.ar    1  UNL1       -0.0607
      7  C5         1.1820   -1.8210   -0.2190 C.ar    1  UNL1       -0.0582
      8  C6         1.2100   -0.5810   -0.7870 C.ar    1  UNL1       -0.0407
      9  C7         0.1020   -0.0240   -1.6320 C.3     1  UNL1        0.0171
     10  C8        -0.8920    0.7210   -0.9160 C.ar    1  UNL1        0.0736
     11  N1        -0.6590    2.0580   -0.7430 N.ar    1  UNL1       -0.1750
     12  N2        -1.4790    2.7950   -0.0260 N.ar    1  UNL1       -0.2425
     13  C9        -2.5860    2.2800    0.5710 C.ar    1  UNL1        0.2725
     14  O3        -3.3620    2.9950    1.2540 O.2     1  UNL1       -0.2658
     15  C10       -2.8790    0.9350    0.4310 C.ar    1  UNL1        0.0496
     16  C11       -3.9910    0.3600    0.9870 C.ar    1  UNL1       -0.0487
     17  C12       -4.2260   -0.9770    0.7780 C.ar    1  UNL1       -0.0610
     18  C13       -3.3720   -1.7470    0.0260 C.ar    1  UNL1       -0.0611
     19  C14       -2.2430   -1.1750   -0.5400 C.ar    1  UNL1       -0.0521
     20  C15       -1.9930    0.1620   -0.3380 C.ar    1  UNL1        0.0106
     21  C16        2.3540    0.2170   -0.5680 C.ar    1  UNL1       -0.0442
     22 H           3.9919    2.3183   -0.6827 H       1  UNL1        0.2954
     23 H           4.1584   -1.7713    1.2996 H       1  UNL1        0.0626
     24 H           2.2494   -3.1992    0.9837 H       1  UNL1        0.0618
     25 H           0.3631   -2.4338   -0.3563 H       1  UNL1        0.0620
     26 H          -0.3849   -0.8415   -2.1215 H       1  UNL1        0.0377
     27 H           0.5611    0.6653   -2.3095 H       1  UNL1        0.0377
     28 H          -1.2840    3.7539    0.0821 H       1  UNL1        0.1921
     29 H          -4.6430    0.9234    1.5549 H       1  UNL1        0.0625
     30 H          -5.0631   -1.4131    1.1953 H       1  UNL1        0.0618
     31 H          -3.5706   -2.7495   -0.1173 H       1  UNL1        0.0618
     32 H          -1.5972   -1.7465   -1.1068 H       1  UNL1        0.0624
     33 H           2.3812    1.1562   -0.9948 H       1  UNL1        0.0628
@<TRIPOS>BOND
     1     1     2    2
     2     2     3    1
     3     2     4    1
     4     4     5   ar
     5     4    21   ar
     6     5     6   ar
     7     6     7   ar
     8     7     8   ar
     9     8     9    1
    10     8    21   ar
    11     9    10    1
    12    10    11   ar
    13    10    20   ar
    14    11    12   ar
    15    12    13   ar
    16    13    14    2
    17    13    15   ar
    18    15    16   ar
    19    15    20   ar
    20    16    17   ar
    21    17    18   ar
    22    18    19   ar
    23    19    20   ar
    24     3    22    1
    25     5    23    1
    26     6    24    1
    27     7    25    1
    28     9    26    1
    29     9    27    1
    30    12    28    1
    31    16    29    1
    32    17    30    1
    33    18    31    1
    34    19    32    1
    35    21    33    1
@<TRIPOS>MOLECULE
../data/bude_mols_rdkit_confs2/molecule_9.pdb
 33 35 0 0 0
SMALL
GASTEIGER

@<TRIPOS>ATOM
      1  O1         5.3000   -1.0470   -1.0940 O.2     1  UNL1       -0.2451
      2  C1         5.0190   -0.3550   -0.0860 C.2     1  UNL1        0.3368
      3  O2         6.1270    0.0720    0.6750 O.3     1  UNL1       -0.4771
      4  C2         3.6760   -0.0040    0.2970 C.ar    1  UNL1        0.0591
      5  C3         3.4370    0.7670    1.4060 C.ar    1  UNL1       -0.0478
      6  C4         2.1360    1.0910    1.7570 C.ar    1  UNL1       -0.0607
      7  C5         1.0780    0.6220    0.9660 C.ar    1  UNL1       -0.0582
      8  C6         1.2730   -0.1430   -0.1370 C.ar    1  UNL1       -0.0407
      9  C7         0.2360   -0.6650   -1.0530 C.3     1  UNL1        0.0171
     10  C8        -1.0430   -1.0300   -0.4160 C.ar    1  UNL1        0.0736
     11  N1        -1.2970   -2.2790    0.0330 N.ar    1  UNL1       -0.1750
     12  N2        -2.4200   -2.6070    0.6390 N.ar    1  UNL1       -0.2425
     13  C9        -3.4210   -1.7400    0.8710 C.ar    1  UNL1        0.2725
     14  O3        -4.4950   -2.0990    1.4630 O.2     1  UNL1       -0.2658
     15  C10       -3.2440   -0.4380    0.4420 C.ar    1  UNL1        0.0496
     16  C11       -4.2710    0.4570    0.6530 C.ar    1  UNL1       -0.0487
     17  C12       -4.0960    1.7370    0.2030 C.ar    1  UNL1       -0.0610
     18  C13       -2.9370    2.0930   -0.4290 C.ar    1  UNL1       -0.0611
     19  C14       -1.9290    1.2030   -0.6310 C.ar    1  UNL1       -0.0521
     20  C15       -2.0660   -0.0960   -0.1940 C.ar    1  UNL1        0.0106
     21  C16        2.6150   -0.4410   -0.4460 C.ar    1  UNL1       -0.0442
     22 H           5.9954    0.5930    1.4426 H       1  UNL1        0.2954
     23 H           4.2257    1.1057    1.9789 H       1  UNL1        0.0626
     24 H           1.9485    1.6703    2.5903 H       1  UNL1        0.0618
     25 H           0.1123    0.8686    1.2335 H       1  UNL1        0.0620
     26 H           0.6275   -1.5380   -1.5321 H       1  UNL1        0.0377
     27 H           0.0117    0.1323   -1.7304 H       1  UNL1        0.0377
     28 H          -2.5323   -3.5381    0.9384 H       1  UNL1        0.1921
     29 H          -5.1393    0.1721    1.1325 H       1  UNL1        0.0625
     30 H          -4.8418    2.4368    0.3411 H       1  UNL1        0.0618
     31 H          -2.8242    3.0634   -0.7617 H       1  UNL1        0.0618
     32 H          -1.0644    1.4998   -1.1100 H       1  UNL1        0.0624
     33 H           2.8073   -1.0204   -1.2781 H       1  UNL1        0.0628
@<TRIPOS>BOND
     1     1     2    2
     2     2     3    1
     3     2     4    1
     4     4     5   ar
     5     4    21   ar
     6     5     6   ar
     7     6     7   ar
     8     7     8   ar
     9     8     9    1
    10     8    21   ar
    11     9    10    1
    12    10    11   ar
    13    10    20   ar
    14    11    12   ar
    15    12    13   ar
    16    13    14    2
    17    13    15   ar
    18    15    16   ar
    19    15    20   ar
    20    16    17   ar
    21    17    18   ar
    22    18    19   ar
    23    19    20   ar
    24     3    22    1
    25     5    23    1
    26     6    24    1
    27     7    25    1
    28     9    26    1
    29     9    27    1
    30    12    28    1
    31    16    29    1
    32    17    30    1
    33    18    31    1
    34    19    32    1
    35    21    33    1
@<TRIPOS>MOLECULE
../data/bude_mols_rdkit_confs2/molecule_9.pdb
 33 35 0 0 0
SMALL
GASTEIGER

@<TRIPOS>ATOM
      1  O1         4.7680    1.2520   -1.4510 O.2     1  UNL1       -0.2451
      2  C1         3.6600    1.4330   -0.8940 C.2     1  UNL1        0.3368
      3  O2         3.0370    2.6450   -1.0750 O.3     1  UNL1       -0.4771
      4  C2         3.0940    0.3500   -0.0860 C.ar    1  UNL1        0.0591
      5  C3         3.7800   -0.8360    0.0370 C.ar    1  UNL1       -0.0478
      6  C4         3.2310   -1.8390    0.7960 C.ar    1  UNL1       -0.0607
      7  C5         2.0210   -1.6550    1.4170 C.ar    1  UNL1       -0.0582
      8  C6         1.2870   -0.4540    1.3150 C.ar    1  UNL1       -0.0407
      9  C7        -0.0170   -0.3400    2.0130 C.3     1  UNL1        0.0171
     10  C8        -1.1650   -0.7620    1.2040 C.ar    1  UNL1        0.0736
     11  N1        -1.5610   -2.0760    1.2150 N.ar    1  UNL1       -0.1750
     12  N2        -2.5350   -2.4940    0.4290 N.ar    1  UNL1       -0.2425
     13  C9        -3.2040   -1.7000   -0.4220 C.ar    1  UNL1        0.2725
     14  O3        -4.1300   -2.1210   -1.1660 O.2     1  UNL1       -0.2658
     15  C10       -2.8550   -0.3710   -0.4790 C.ar    1  UNL1        0.0496
     16  C11       -3.5300    0.4860   -1.3210 C.ar    1  UNL1       -0.0487
     17  C12       -3.1990    1.8270   -1.3620 C.ar    1  UNL1       -0.0610
     18  C13       -2.1890    2.2580   -0.5420 C.ar    1  UNL1       -0.0611
     19  C14       -1.5310    1.3950    0.2850 C.ar    1  UNL1       -0.0521
     20  C15       -1.8340    0.0630    0.3470 C.ar    1  UNL1        0.0106
     21  C16        1.8610    0.5200    0.5550 C.ar    1  UNL1       -0.0442
     22 H           2.2077    2.8104   -0.6714 H       1  UNL1        0.2954
     23 H           4.6895   -0.9689   -0.4322 H       1  UNL1        0.0626
     24 H           3.7305   -2.7360    0.9003 H       1  UNL1        0.0618
     25 H           1.6320   -2.4264    1.9816 H       1  UNL1        0.0620
     26 H          -0.1605    0.6827    2.2932 H       1  UNL1        0.0377
     27 H           0.0251   -0.9962    2.8571 H       1  UNL1        0.0377
     28 H          -2.7861   -3.4451    0.4691 H       1  UNL1        0.1921
     29 H          -4.2860    0.1247   -1.9235 H       1  UNL1        0.0625
     30 H          -3.6948    2.4808   -1.9879 H       1  UNL1        0.0618
     31 H          -1.9210    3.2546   -0.5502 H       1  UNL1        0.0618
     32 H          -0.7764    1.7612    0.8862 H       1  UNL1        0.0624
     33 H           1.3669    1.4196    0.4474 H       1  UNL1        0.0628
@<TRIPOS>BOND
     1     1     2    2
     2     2     3    1
     3     2     4    1
     4     4     5   ar
     5     4    21   ar
     6     5     6   ar
     7     6     7   ar
     8     7     8   ar
     9     8     9    1
    10     8    21   ar
    11     9    10    1
    12    10    11   ar
    13    10    20   ar
    14    11    12   ar
    15    12    13   ar
    16    13    14    2
    17    13    15   ar
    18    15    16   ar
    19    15    20   ar
    20    16    17   ar
    21    17    18   ar
    22    18    19   ar
    23    19    20   ar
    24     3    22    1
    25     5    23    1
    26     6    24    1
    27     7    25    1
    28     9    26    1
    29     9    27    1
    30    12    28    1
    31    16    29    1
    32    17    30    1
    33    18    31    1
    34    19    32    1
    35    21    33    1
