@<TRIPOS>MOLECULE
../data/bude_mols_rdkit_confs2/molecule_99.pdb
 49 51 0 0 0
SMALL
GASTEIGER

@<TRIPOS>ATOM
      1  O1         1.9100    1.4070   -2.0740 O.2     1  UNL1       -0.2687
      2  C1         1.2230    1.0780   -1.0600 C.2     1  UNL1        0.2602
      3  N1         1.7820    0.1080   -0.1980 N.am    1  UNL1       -0.2301
      4  N2         3.0350   -0.4350   -0.4930 N.am    1  UNL1       -0.2300
      5  C2         4.1150   -0.2570    0.4330 C.2     1  UNL1        0.2637
      6  O2         3.7990    0.4020    1.4600 O.2     1  UNL1       -0.2685
      7  C3         5.4440   -0.8000    0.1790 C.ar    1  UNL1        0.0795
      8  C4         5.7160   -1.5180   -0.9820 C.ar    1  UNL1       -0.0460
      9  C5         6.9550   -2.0510   -1.2690 C.ar    1  UNL1       -0.0608
     10  C6         8.0010   -1.8890   -0.3920 C.ar    1  UNL1       -0.0583
     11  C7         7.7600   -1.1890    0.7520 C.ar    1  UNL1       -0.0194
     12  C8         6.4910   -0.6370    1.0560 C.ar    1  UNL1        0.1290
     13  O3         6.3770    0.0430    2.2360 O.3     1  UNL1       -0.5060
     14  C9        -0.0970    1.7040   -0.8260 C.ar    1  UNL1        0.0400
     15  C10       -0.4970    2.7390   -1.6550 C.ar    1  UNL1       -0.0495
     16  C11       -1.7270    3.3240   -1.4430 C.ar    1  UNL1       -0.0592
     17  C12       -2.5690    2.9000   -0.4220 C.ar    1  UNL1       -0.0353
     18  C13       -2.1690    1.8720    0.3990 C.ar    1  UNL1        0.1062
     19  S1        -3.1800    1.3130    1.6800 S.O2    1  UNL1        0.0609
     20  O4        -3.9090    2.4680    2.3250 O.2     1  UNL1       -0.1528
     21  O5        -2.2920    0.7370    2.7750 O.2     1  UNL1       -0.1528
     22  N3        -4.2750    0.0870    1.2270 N.3     1  UNL1       -0.1766
     23  C14       -3.5970   -1.0820    0.7690 C.3     1  UNL1        0.0205
     24  C15       -4.5030   -2.2160    0.4070 C.3     1  UNL1       -0.0385
     25  C16       -5.7620   -1.7580   -0.2830 C.3     1  UNL1       -0.0506
     26  C17       -5.4820   -0.3450   -0.8060 C.3     1  UNL1       -0.0385
     27  C18       -5.3740    0.5260    0.4350 C.3     1  UNL1        0.0205
     28  C19       -0.9350    1.2990    0.1720 C.ar    1  UNL1       -0.0232
     29 H           1.2920   -0.1831    0.6048 H       1  UNL1        0.1731
     30 H           3.1751   -0.9354   -1.3292 H       1  UNL1        0.1731
     31 H           4.9524   -1.6584   -1.6619 H       1  UNL1        0.0626
     32 H           7.0977   -2.5743   -2.1469 H       1  UNL1        0.0618
     33 H           8.9337   -2.2827   -0.5924 H       1  UNL1        0.0619
     34 H           8.5323   -1.0557    1.4235 H       1  UNL1        0.0654
     35 H           5.5568    0.4253    2.4791 H       1  UNL1        0.2922
     36 H           0.1154    3.0666   -2.4183 H       1  UNL1        0.0625
     37 H          -2.0300    4.0957   -2.0575 H       1  UNL1        0.0618
     38 H          -3.4858    3.3524   -0.2813 H       1  UNL1        0.0637
     39 H          -2.9387   -1.4133    1.5447 H       1  UNL1        0.0444
     40 H          -3.0790   -0.8056   -0.1255 H       1  UNL1        0.0444
     41 H          -4.7733   -2.7370    1.3016 H       1  UNL1        0.0278
     42 H          -3.9729   -2.8479   -0.2746 H       1  UNL1        0.0278
     43 H          -6.5777   -1.7411    0.4093 H       1  UNL1        0.0266
     44 H          -6.0291   -2.4199   -1.0802 H       1  UNL1        0.0266
     45 H          -6.2839   -0.0104   -1.4304 H       1  UNL1        0.0278
     46 H          -4.5923   -0.3075   -1.3992 H       1  UNL1        0.0278
     47 H          -5.2202    1.5442    0.1442 H       1  UNL1        0.0444
     48 H          -6.2771    0.4509    1.0040 H       1  UNL1        0.0444
     49 H          -0.6310    0.5273    0.7861 H       1  UNL1        0.0644
@<TRIPOS>BOND
     1     1     2    2
     2     2     3   am
     3     2    14    1
     4     3     4    1
     5     4     5   am
     6     5     6    2
     7     5     7    1
     8     7     8   ar
     9     7    12   ar
    10     8     9   ar
    11     9    10   ar
    12    10    11   ar
    13    11    12   ar
    14    12    13    1
    15    14    15   ar
    16    14    28   ar
    17    15    16   ar
    18    16    17   ar
    19    17    18   ar
    20    18    19    1
    21    18    28   ar
    22    19    20    2
    23    19    21    2
    24    19    22    1
    25    22    23    1
    26    22    27    1
    27    23    24    1
    28    24    25    1
    29    25    26    1
    30    26    27    1
    31     3    29    1
    32     4    30    1
    33     8    31    1
    34     9    32    1
    35    10    33    1
    36    11    34    1
    37    13    35    1
    38    15    36    1
    39    16    37    1
    40    17    38    1
    41    23    39    1
    42    23    40    1
    43    24    41    1
    44    24    42    1
    45    25    43    1
    46    25    44    1
    47    26    45    1
    48    26    46    1
    49    27    47    1
    50    27    48    1
    51    28    49    1
@<TRIPOS>MOLECULE
../data/bude_mols_rdkit_confs2/molecule_99.pdb
 49 51 0 0 0
SMALL
GASTEIGER

@<TRIPOS>ATOM
      1  O1         1.5850    1.6160    0.4850 O.2     1  UNL1       -0.2687
      2  C1         1.3540    0.4260    0.1980 C.2     1  UNL1        0.2602
      3  N1         2.3870   -0.3960   -0.2840 N.am    1  UNL1       -0.2301
      4  N2         3.7020    0.0890   -0.4630 N.am    1  UNL1       -0.2300
      5  C2         4.8060   -0.6220    0.0440 C.2     1  UNL1        0.2637
      6  O2         4.4820   -1.7070    0.6810 O.2     1  UNL1       -0.2685
      7  C3         6.2070   -0.3210   -0.0560 C.ar    1  UNL1        0.0795
      8  C4         7.1310   -1.2550    0.4600 C.ar    1  UNL1       -0.0460
      9  C5         8.4840   -1.1130    0.3660 C.ar    1  UNL1       -0.0608
     10  C6         9.0160   -0.0090   -0.2600 C.ar    1  UNL1       -0.0583
     11  C7         8.1710    0.9260   -0.7750 C.ar    1  UNL1       -0.0194
     12  C8         6.7510    0.7780   -0.6760 C.ar    1  UNL1        0.1290
     13  O3         6.0480    1.7710   -1.2150 O.3     1  UNL1       -0.5060
     14  C9        -0.0070   -0.1750    0.3460 C.ar    1  UNL1        0.0400
     15  C10       -0.2260   -1.0380    1.3920 C.ar    1  UNL1       -0.0495
     16  C11       -1.4450   -1.6960    1.5630 C.ar    1  UNL1       -0.0592
     17  C12       -2.4030   -1.4300    0.6310 C.ar    1  UNL1       -0.0353
     18  C13       -2.2410   -0.5710   -0.4390 C.ar    1  UNL1        0.1062
     19  S1        -3.4900   -0.3230   -1.6170 S.O2    1  UNL1        0.0609
     20  O4        -4.1010   -1.6820   -1.9020 O.2     1  UNL1       -0.1528
     21  O5        -2.9110    0.1930   -2.9270 O.2     1  UNL1       -0.1528
     22  N3        -4.7490    0.7190   -1.0930 N.3     1  UNL1       -0.1766
     23  C14       -5.9680   -0.0520   -0.9950 C.3     1  UNL1        0.0205
     24  C15       -7.0560    0.6590   -0.2400 C.3     1  UNL1       -0.0385
     25  C16       -6.6250    0.9110    1.1900 C.3     1  UNL1       -0.0506
     26  C17       -5.1310    0.7920    1.3410 C.3     1  UNL1       -0.0385
     27  C18       -4.4150    1.3660    0.1610 C.3     1  UNL1        0.0205
     28  C19       -0.9990    0.0560   -0.5540 C.ar    1  UNL1       -0.0232
     29 H           2.1890   -1.3352   -0.5029 H       1  UNL1        0.1731
     30 H           3.8477    0.9335   -0.9476 H       1  UNL1        0.1731
     31 H           6.7616   -2.0931    0.9355 H       1  UNL1        0.0626
     32 H           9.1080   -1.8324    0.7637 H       1  UNL1        0.0618
     33 H          10.0384    0.1082   -0.3378 H       1  UNL1        0.0619
     34 H           8.5618    1.7571   -1.2456 H       1  UNL1        0.0654
     35 H           5.1116    1.7488   -1.1913 H       1  UNL1        0.2922
     36 H           0.5329   -1.2047    2.0712 H       1  UNL1        0.0625
     37 H          -1.6109   -2.3450    2.3481 H       1  UNL1        0.0618
     38 H          -3.3143   -1.9038    0.7316 H       1  UNL1        0.0637
     39 H          -5.7500   -0.9715   -0.4930 H       1  UNL1        0.0444
     40 H          -6.3241   -0.2140   -1.9909 H       1  UNL1        0.0444
     41 H          -7.9392    0.0550   -0.2413 H       1  UNL1        0.0278
     42 H          -7.2531    1.5975   -0.7147 H       1  UNL1        0.0278
     43 H          -7.0979    0.1939    1.8280 H       1  UNL1        0.0266
     44 H          -6.9132    1.9057    1.4590 H       1  UNL1        0.0266
     45 H          -4.8721   -0.2419    1.4359 H       1  UNL1        0.0278
     46 H          -4.8364    1.3393    2.2120 H       1  UNL1        0.0278
     47 H          -4.6672    2.4030    0.0841 H       1  UNL1        0.0444
     48 H          -3.3687    1.2121    0.3241 H       1  UNL1        0.0444
     49 H          -0.8309    0.7070   -1.3369 H       1  UNL1        0.0644
@<TRIPOS>BOND
     1     1     2    2
     2     2     3   am
     3     2    14    1
     4     3     4    1
     5     4     5   am
     6     5     6    2
     7     5     7    1
     8     7     8   ar
     9     7    12   ar
    10     8     9   ar
    11     9    10   ar
    12    10    11   ar
    13    11    12   ar
    14    12    13    1
    15    14    15   ar
    16    14    28   ar
    17    15    16   ar
    18    16    17   ar
    19    17    18   ar
    20    18    19    1
    21    18    28   ar
    22    19    20    2
    23    19    21    2
    24    19    22    1
    25    22    23    1
    26    22    27    1
    27    23    24    1
    28    24    25    1
    29    25    26    1
    30    26    27    1
    31     3    29    1
    32     4    30    1
    33     8    31    1
    34     9    32    1
    35    10    33    1
    36    11    34    1
    37    13    35    1
    38    15    36    1
    39    16    37    1
    40    17    38    1
    41    23    39    1
    42    23    40    1
    43    24    41    1
    44    24    42    1
    45    25    43    1
    46    25    44    1
    47    26    45    1
    48    26    46    1
    49    27    47    1
    50    27    48    1
    51    28    49    1
@<TRIPOS>MOLECULE
../data/bude_mols_rdkit_confs2/molecule_99.pdb
 49 51 0 0 0
SMALL
GASTEIGER

@<TRIPOS>ATOM
      1  O1        -1.3550   -1.0890   -0.3370 O.2     1  UNL1       -0.2687
      2  C1        -1.3720    0.1390   -0.6000 C.2     1  UNL1        0.2602
      3  N1        -2.6000    0.8230   -0.6770 N.am    1  UNL1       -0.2301
      4  N2        -3.8560    0.1920   -0.4770 N.am    1  UNL1       -0.2300
      5  C2        -4.7950    0.7470    0.4140 C.2     1  UNL1        0.2637
      6  O2        -4.4160    1.8350    1.0130 O.2     1  UNL1       -0.2685
      7  C3        -6.1040    0.2040    0.6920 C.ar    1  UNL1        0.0795
      8  C4        -6.9250    0.9000    1.5920 C.ar    1  UNL1       -0.0460
      9  C5        -8.1950    0.4670    1.9030 C.ar    1  UNL1       -0.0608
     10  C6        -8.7310   -0.6710    1.3490 C.ar    1  UNL1       -0.0583
     11  C7        -7.9460   -1.3640    0.4700 C.ar    1  UNL1       -0.0194
     12  C8        -6.6510   -0.9210    0.1540 C.ar    1  UNL1        0.1290
     13  O3        -5.9210   -1.6690   -0.7370 O.3     1  UNL1       -0.5060
     14  C9        -0.1030    0.8250   -0.8250 C.ar    1  UNL1        0.0400
     15  C10       -0.0070    2.1980   -0.7320 C.ar    1  UNL1       -0.0495
     16  C11        1.1650    2.8820   -0.9580 C.ar    1  UNL1       -0.0592
     17  C12        2.3110    2.1640   -1.2990 C.ar    1  UNL1       -0.0353
     18  C13        2.2300    0.7940   -1.3970 C.ar    1  UNL1        0.1062
     19  S1         3.6730   -0.1290   -1.8550 S.O2    1  UNL1        0.0609
     20  O4         3.2370   -1.3770   -2.5810 O.2     1  UNL1       -0.1528
     21  O5         4.5000    0.6950   -2.8310 O.2     1  UNL1       -0.1528
     22  N3         4.5860   -0.4990   -0.5070 N.3     1  UNL1       -0.1766
     23  C14        5.1370    0.5200    0.2780 C.3     1  UNL1        0.0205
     24  C15        6.4960    0.1860    0.8560 C.3     1  UNL1       -0.0385
     25  C16        6.6510   -1.2320    1.2840 C.3     1  UNL1       -0.0506
     26  C17        6.1170   -2.2260    0.3150 C.3     1  UNL1       -0.0385
     27  C18        4.7190   -1.8330   -0.0930 C.3     1  UNL1        0.0205
     28  C19        1.0430    0.1340   -1.1630 C.ar    1  UNL1       -0.0232
     29 H          -2.5872    1.7864   -0.8795 H       1  UNL1        0.1731
     30 H          -4.0714   -0.6367   -0.9630 H       1  UNL1        0.1731
     31 H          -6.5670    1.7612    2.0337 H       1  UNL1        0.0626
     32 H          -8.7607    1.0130    2.5715 H       1  UNL1        0.0618
     33 H          -9.6840   -0.9883    1.5861 H       1  UNL1        0.0619
     34 H          -8.3100   -2.2248    0.0324 H       1  UNL1        0.0654
     35 H          -5.0534   -1.4036   -0.9711 H       1  UNL1        0.2922
     36 H          -0.8516    2.7357   -0.4819 H       1  UNL1        0.0625
     37 H           1.1957    3.9103   -0.8765 H       1  UNL1        0.0618
     38 H           3.2035    2.6514   -1.4746 H       1  UNL1        0.0637
     39 H           4.4670    0.7204    1.0879 H       1  UNL1        0.0444
     40 H           5.2729    1.3656   -0.3634 H       1  UNL1        0.0444
     41 H           6.6606    0.8125    1.7077 H       1  UNL1        0.0278
     42 H           7.2085    0.3487    0.0745 H       1  UNL1        0.0278
     43 H           6.1359   -1.3597    2.2131 H       1  UNL1        0.0266
     44 H           7.7023   -1.4150    1.3625 H       1  UNL1        0.0266
     45 H           6.0961   -3.1933    0.7719 H       1  UNL1        0.0278
     46 H           6.7459   -2.2526   -0.5503 H       1  UNL1        0.0278
     47 H           4.4168   -2.4653   -0.9015 H       1  UNL1        0.0444
     48 H           4.1061   -1.9437    0.7771 H       1  UNL1        0.0444
     49 H           1.0105   -0.8945   -1.2418 H       1  UNL1        0.0644
@<TRIPOS>BOND
     1     1     2    2
     2     2     3   am
     3     2    14    1
     4     3     4    1
     5     4     5   am
     6     5     6    2
     7     5     7    1
     8     7     8   ar
     9     7    12   ar
    10     8     9   ar
    11     9    10   ar
    12    10    11   ar
    13    11    12   ar
    14    12    13    1
    15    14    15   ar
    16    14    28   ar
    17    15    16   ar
    18    16    17   ar
    19    17    18   ar
    20    18    19    1
    21    18    28   ar
    22    19    20    2
    23    19    21    2
    24    19    22    1
    25    22    23    1
    26    22    27    1
    27    23    24    1
    28    24    25    1
    29    25    26    1
    30    26    27    1
    31     3    29    1
    32     4    30    1
    33     8    31    1
    34     9    32    1
    35    10    33    1
    36    11    34    1
    37    13    35    1
    38    15    36    1
    39    16    37    1
    40    17    38    1
    41    23    39    1
    42    23    40    1
    43    24    41    1
    44    24    42    1
    45    25    43    1
    46    25    44    1
    47    26    45    1
    48    26    46    1
    49    27    47    1
    50    27    48    1
    51    28    49    1
@<TRIPOS>MOLECULE
../data/bude_mols_rdkit_confs2/molecule_99.pdb
 49 51 0 0 0
SMALL
GASTEIGER

@<TRIPOS>ATOM
      1  O1        -1.1920   -0.3240   -1.2650 O.2     1  UNL1       -0.2687
      2  C1        -1.2210    0.1970   -0.1230 C.2     1  UNL1        0.2602
      3  N1        -2.4250    0.2310    0.6160 N.am    1  UNL1       -0.2301
      4  N2        -3.6530   -0.2890    0.1620 N.am    1  UNL1       -0.2300
      5  C2        -4.7700    0.5660    0.0730 C.2     1  UNL1        0.2637
      6  O2        -4.5260    1.7890    0.4310 O.2     1  UNL1       -0.2685
      7  C3        -6.0960    0.2360   -0.3560 C.ar    1  UNL1        0.0795
      8  C4        -7.0530    1.2430   -0.3620 C.ar    1  UNL1       -0.0460
      9  C5        -8.3540    1.0340   -0.7510 C.ar    1  UNL1       -0.0608
     10  C6        -8.7250   -0.2420   -1.1530 C.ar    1  UNL1       -0.0583
     11  C7        -7.7890   -1.2470   -1.1520 C.ar    1  UNL1       -0.0194
     12  C8        -6.4700   -1.0060   -0.7510 C.ar    1  UNL1        0.1290
     13  O3        -5.6090   -2.0850   -0.7880 O.3     1  UNL1       -0.5060
     14  C9         0.0070    0.7720    0.4420 C.ar    1  UNL1        0.0400
     15  C10        0.0870    2.1470    0.5360 C.ar    1  UNL1       -0.0495
     16  C11        1.1710    2.8110    1.0650 C.ar    1  UNL1       -0.0592
     17  C12        2.2330    2.0260    1.5240 C.ar    1  UNL1       -0.0353
     18  C13        2.1760    0.6520    1.4420 C.ar    1  UNL1        0.1062
     19  S1         3.5150   -0.2890    2.0440 S.O2    1  UNL1        0.0609
     20  O4         2.9900   -1.5390    2.7000 O.2     1  UNL1       -0.1528
     21  O5         4.1960    0.5400    3.1260 O.2     1  UNL1       -0.1528
     22  N3         4.6410   -0.5720    0.8300 N.3     1  UNL1       -0.1766
     23  C14        4.2400   -1.2970   -0.3120 C.3     1  UNL1        0.0205
     24  C15        5.4050   -2.0190   -0.9650 C.3     1  UNL1       -0.0385
     25  C16        6.4630   -1.0100   -1.2840 C.3     1  UNL1       -0.0506
     26  C17        6.9170   -0.2970   -0.0300 C.3     1  UNL1       -0.0385
     27  C18        5.7460    0.3000    0.7220 C.3     1  UNL1        0.0205
     28  C19        1.0510    0.0240    0.8950 C.ar    1  UNL1       -0.0232
     29 H          -2.4042    0.6461    1.5084 H       1  UNL1        0.1731
     30 H          -3.7300   -1.2376   -0.0899 H       1  UNL1        0.1731
     31 H          -6.7743    2.1900   -0.0609 H       1  UNL1        0.0626
     32 H          -9.0385    1.8063   -0.7445 H       1  UNL1        0.0618
     33 H          -9.6947   -0.4335   -1.4497 H       1  UNL1        0.0619
     34 H          -8.0628   -2.1957   -1.4519 H       1  UNL1        0.0654
     35 H          -4.7144   -1.9796   -0.5300 H       1  UNL1        0.2922
     36 H          -0.7083    2.7072    0.1913 H       1  UNL1        0.0625
     37 H           1.1983    3.8412    1.1202 H       1  UNL1        0.0618
     38 H           3.0672    2.4800    1.9279 H       1  UNL1        0.0637
     39 H           3.8137   -0.6178   -1.0204 H       1  UNL1        0.0444
     40 H           3.5266   -2.0322   -0.0032 H       1  UNL1        0.0444
     41 H           5.0767   -2.4960   -1.8648 H       1  UNL1        0.0278
     42 H           5.7940   -2.7650   -0.3039 H       1  UNL1        0.0278
     43 H           6.0680   -0.2925   -1.9725 H       1  UNL1        0.0266
     44 H           7.3017   -1.5155   -1.7151 H       1  UNL1        0.0266
     45 H           7.5928    0.4871   -0.3009 H       1  UNL1        0.0278
     46 H           7.3976   -1.0099    0.6070 H       1  UNL1        0.0278
     47 H           6.0724    0.5564    1.7082 H       1  UNL1        0.0444
     48 H           5.4189    1.1544    0.1671 H       1  UNL1        0.0444
     49 H           1.0127   -1.0055    0.8350 H       1  UNL1        0.0644
@<TRIPOS>BOND
     1     1     2    2
     2     2     3   am
     3     2    14    1
     4     3     4    1
     5     4     5   am
     6     5     6    2
     7     5     7    1
     8     7     8   ar
     9     7    12   ar
    10     8     9   ar
    11     9    10   ar
    12    10    11   ar
    13    11    12   ar
    14    12    13    1
    15    14    15   ar
    16    14    28   ar
    17    15    16   ar
    18    16    17   ar
    19    17    18   ar
    20    18    19    1
    21    18    28   ar
    22    19    20    2
    23    19    21    2
    24    19    22    1
    25    22    23    1
    26    22    27    1
    27    23    24    1
    28    24    25    1
    29    25    26    1
    30    26    27    1
    31     3    29    1
    32     4    30    1
    33     8    31    1
    34     9    32    1
    35    10    33    1
    36    11    34    1
    37    13    35    1
    38    15    36    1
    39    16    37    1
    40    17    38    1
    41    23    39    1
    42    23    40    1
    43    24    41    1
    44    24    42    1
    45    25    43    1
    46    25    44    1
    47    26    45    1
    48    26    46    1
    49    27    47    1
    50    27    48    1
    51    28    49    1
@<TRIPOS>MOLECULE
../data/bude_mols_rdkit_confs2/molecule_99.pdb
 49 51 0 0 0
SMALL
GASTEIGER

@<TRIPOS>ATOM
      1  O1         1.5770    0.1370   -1.1430 O.2     1  UNL1       -0.2687
      2  C1         1.4780   -0.5790   -0.1280 C.2     1  UNL1        0.2602
      3  N1         2.6750   -1.0930    0.4430 N.am    1  UNL1       -0.2301
      4  N2         3.9660   -0.8630   -0.0340 N.am    1  UNL1       -0.2300
      5  C2         4.6430    0.3260    0.2410 C.2     1  UNL1        0.2637
      6  O2         3.9610    1.1650    0.9500 O.2     1  UNL1       -0.2685
      7  C3         5.9790    0.7240   -0.1550 C.ar    1  UNL1        0.0795
      8  C4         6.4650    1.9740    0.2690 C.ar    1  UNL1       -0.0460
      9  C5         7.7210    2.4210   -0.0390 C.ar    1  UNL1       -0.0608
     10  C6         8.5840    1.6620   -0.7880 C.ar    1  UNL1       -0.0583
     11  C7         8.1490    0.4530   -1.2140 C.ar    1  UNL1       -0.0194
     12  C8         6.8400   -0.0430   -0.9080 C.ar    1  UNL1        0.1290
     13  O3         6.5070   -1.2270   -1.3630 O.3     1  UNL1       -0.5060
     14  C9         0.1750   -0.9180    0.5050 C.ar    1  UNL1        0.0400
     15  C10        0.1640   -1.1020    1.8650 C.ar    1  UNL1       -0.0495
     16  C11       -0.9830   -1.4500    2.5180 C.ar    1  UNL1       -0.0592
     17  C12       -2.1360   -1.6150    1.7850 C.ar    1  UNL1       -0.0353
     18  C13       -2.1460   -1.4330    0.4080 C.ar    1  UNL1        0.1062
     19  S1        -3.6380   -1.7170   -0.4450 S.O2    1  UNL1        0.0609
     20  O4        -4.3060   -2.9040    0.2120 O.2     1  UNL1       -0.1528
     21  O5        -3.3520   -2.0370   -1.9030 O.2     1  UNL1       -0.1528
     22  N3        -4.6550   -0.3900   -0.3750 N.3     1  UNL1       -0.1766
     23  C14       -4.2670    0.8360   -0.9260 C.3     1  UNL1        0.0205
     24  C15       -5.4090    1.6550   -1.4960 C.3     1  UNL1       -0.0385
     25  C16       -6.6390    1.6230   -0.6400 C.3     1  UNL1       -0.0506
     26  C17       -7.0480    0.1890   -0.4330 C.3     1  UNL1       -0.0385
     27  C18       -5.8980   -0.5190    0.2700 C.3     1  UNL1        0.0205
     28  C19       -0.9670   -1.0780   -0.2290 C.ar    1  UNL1       -0.0232
     29 H           2.5850   -1.6595    1.2432 H       1  UNL1        0.1731
     30 H           4.4091   -1.5548   -0.5765 H       1  UNL1        0.1731
     31 H           5.8494    2.5784    0.8353 H       1  UNL1        0.0626
     32 H           8.0251    3.3475    0.2989 H       1  UNL1        0.0618
     33 H           9.5312    2.0007   -1.0185 H       1  UNL1        0.0619
     34 H           8.7831   -0.1327   -1.7796 H       1  UNL1        0.0654
     35 H           5.6578   -1.5778   -1.1791 H       1  UNL1        0.2922
     36 H           1.0361   -0.9753    2.4020 H       1  UNL1        0.0625
     37 H          -0.9855   -1.5866    3.5409 H       1  UNL1        0.0618
     38 H          -3.0094   -1.8788    2.2673 H       1  UNL1        0.0637
     39 H          -3.5679    0.6432   -1.7128 H       1  UNL1        0.0444
     40 H          -3.8472    1.4111   -0.1273 H       1  UNL1        0.0444
     41 H          -5.6564    1.2682   -2.4625 H       1  UNL1        0.0278
     42 H          -5.0798    2.6720   -1.5442 H       1  UNL1        0.0278
     43 H          -7.4294    2.1560   -1.1259 H       1  UNL1        0.0266
     44 H          -6.4371    2.0837    0.3044 H       1  UNL1        0.0266
     45 H          -7.2403   -0.2758   -1.3774 H       1  UNL1        0.0278
     46 H          -7.9402    0.1331    0.1550 H       1  UNL1        0.0278
     47 H          -5.8073   -0.1126    1.2556 H       1  UNL1        0.0444
     48 H          -6.1356   -1.5623    0.2691 H       1  UNL1        0.0444
     49 H          -0.9516   -0.9354   -1.2510 H       1  UNL1        0.0644
@<TRIPOS>BOND
     1     1     2    2
     2     2     3   am
     3     2    14    1
     4     3     4    1
     5     4     5   am
     6     5     6    2
     7     5     7    1
     8     7     8   ar
     9     7    12   ar
    10     8     9   ar
    11     9    10   ar
    12    10    11   ar
    13    11    12   ar
    14    12    13    1
    15    14    15   ar
    16    14    28   ar
    17    15    16   ar
    18    16    17   ar
    19    17    18   ar
    20    18    19    1
    21    18    28   ar
    22    19    20    2
    23    19    21    2
    24    19    22    1
    25    22    23    1
    26    22    27    1
    27    23    24    1
    28    24    25    1
    29    25    26    1
    30    26    27    1
    31     3    29    1
    32     4    30    1
    33     8    31    1
    34     9    32    1
    35    10    33    1
    36    11    34    1
    37    13    35    1
    38    15    36    1
    39    16    37    1
    40    17    38    1
    41    23    39    1
    42    23    40    1
    43    24    41    1
    44    24    42    1
    45    25    43    1
    46    25    44    1
    47    26    45    1
    48    26    46    1
    49    27    47    1
    50    27    48    1
    51    28    49    1
@<TRIPOS>MOLECULE
../data/bude_mols_rdkit_confs2/molecule_99.pdb
 49 51 0 0 0
SMALL
GASTEIGER

@<TRIPOS>ATOM
      1  O1         1.8520    0.1830   -0.3450 O.2     1  UNL1       -0.2687
      2  C1         1.5910   -0.8890    0.2980 C.2     1  UNL1        0.2602
      3  N1         2.6800   -1.7680    0.5150 N.am    1  UNL1       -0.2301
      4  N2         3.9750   -1.4350    0.0270 N.am    1  UNL1       -0.2300
      5  C2         4.5530   -0.2230    0.4480 C.2     1  UNL1        0.2637
      6  O2         3.9090    0.5540    1.2560 O.2     1  UNL1       -0.2685
      7  C3         5.8640    0.1950    0.0030 C.ar    1  UNL1        0.0795
      8  C4         6.5950   -0.5870   -0.8530 C.ar    1  UNL1       -0.0460
      9  C5         7.8690   -0.1800   -1.2850 C.ar    1  UNL1       -0.0608
     10  C6         8.3360    1.0180   -0.8160 C.ar    1  UNL1       -0.0583
     11  C7         7.5970    1.8080    0.0490 C.ar    1  UNL1       -0.0194
     12  C8         6.3560    1.4050    0.4660 C.ar    1  UNL1        0.1290
     13  O3         5.6110    2.2040    1.3390 O.3     1  UNL1       -0.5060
     14  C9         0.2360   -1.1620    0.7670 C.ar    1  UNL1        0.0400
     15  C10       -0.1100   -2.3550    1.3410 C.ar    1  UNL1       -0.0495
     16  C11       -1.4020   -2.5520    1.7680 C.ar    1  UNL1       -0.0592
     17  C12       -2.3670   -1.5810    1.6360 C.ar    1  UNL1       -0.0353
     18  C13       -1.9940   -0.3860    1.0540 C.ar    1  UNL1        0.1062
     19  S1        -3.2100    0.8860    0.8690 S.O2    1  UNL1        0.0609
     20  O4        -2.5220    2.2080    0.9840 O.2     1  UNL1       -0.1528
     21  O5        -4.1980    0.7450    1.9900 O.2     1  UNL1       -0.1528
     22  N3        -3.9840    0.7030   -0.6710 N.3     1  UNL1       -0.1766
     23  C14       -4.6490   -0.5600   -0.7430 C.3     1  UNL1        0.0205
     24  C15       -5.9070   -0.4660   -1.5930 C.3     1  UNL1       -0.0385
     25  C16       -6.8940    0.5160   -0.9870 C.3     1  UNL1       -0.0506
     26  C17       -6.2030    1.7000   -0.3600 C.3     1  UNL1       -0.0385
     27  C18       -4.8250    1.8200   -0.9810 C.3     1  UNL1        0.0205
     28  C19       -0.7030   -0.1740    0.6210 C.ar    1  UNL1       -0.0232
     29 H           2.5411   -2.6109    1.0043 H       1  UNL1        0.1731
     30 H           4.4534   -2.0364   -0.5884 H       1  UNL1        0.1731
     31 H           6.2060   -1.4838   -1.1837 H       1  UNL1        0.0626
     32 H           8.4290   -0.7603   -1.9290 H       1  UNL1        0.0618
     33 H           9.2683    1.3430   -1.1164 H       1  UNL1        0.0619
     34 H           7.9835    2.7053    0.3812 H       1  UNL1        0.0654
     35 H           4.7626    1.9242    1.6215 H       1  UNL1        0.2922
     36 H           0.5938   -3.1015    1.4526 H       1  UNL1        0.0625
     37 H          -1.6549   -3.4545    2.2000 H       1  UNL1        0.0618
     38 H          -3.3339   -1.7398    1.9599 H       1  UNL1        0.0637
     39 H          -4.9168   -0.8713    0.2451 H       1  UNL1        0.0444
     40 H          -3.9859   -1.2692   -1.1927 H       1  UNL1        0.0444
     41 H          -6.3639   -1.4318   -1.6516 H       1  UNL1        0.0278
     42 H          -5.6366   -0.1225   -2.5696 H       1  UNL1        0.0278
     43 H          -7.4650    0.0119   -0.2355 H       1  UNL1        0.0266
     44 H          -7.5223    0.8794   -1.7732 H       1  UNL1        0.0266
     45 H          -6.1139    1.5514    0.6959 H       1  UNL1        0.0278
     46 H          -6.7670    2.5932   -0.5305 H       1  UNL1        0.0278
     47 H          -4.9321    1.8843   -2.0437 H       1  UNL1        0.0444
     48 H          -4.3623    2.6967   -0.5782 H       1  UNL1        0.0444
     49 H          -0.4438    0.7262    0.1880 H       1  UNL1        0.0644
@<TRIPOS>BOND
     1     1     2    2
     2     2     3   am
     3     2    14    1
     4     3     4    1
     5     4     5   am
     6     5     6    2
     7     5     7    1
     8     7     8   ar
     9     7    12   ar
    10     8     9   ar
    11     9    10   ar
    12    10    11   ar
    13    11    12   ar
    14    12    13    1
    15    14    15   ar
    16    14    28   ar
    17    15    16   ar
    18    16    17   ar
    19    17    18   ar
    20    18    19    1
    21    18    28   ar
    22    19    20    2
    23    19    21    2
    24    19    22    1
    25    22    23    1
    26    22    27    1
    27    23    24    1
    28    24    25    1
    29    25    26    1
    30    26    27    1
    31     3    29    1
    32     4    30    1
    33     8    31    1
    34     9    32    1
    35    10    33    1
    36    11    34    1
    37    13    35    1
    38    15    36    1
    39    16    37    1
    40    17    38    1
    41    23    39    1
    42    23    40    1
    43    24    41    1
    44    24    42    1
    45    25    43    1
    46    25    44    1
    47    26    45    1
    48    26    46    1
    49    27    47    1
    50    27    48    1
    51    28    49    1
@<TRIPOS>MOLECULE
../data/bude_mols_rdkit_confs2/molecule_99.pdb
 49 51 0 0 0
SMALL
GASTEIGER

@<TRIPOS>ATOM
      1  O1        -1.5820   -2.0010    0.7220 O.2     1  UNL1       -0.2687
      2  C1        -0.9310   -1.0790    0.1280 C.2     1  UNL1        0.2602
      3  N1        -1.5030    0.2220    0.2590 N.am    1  UNL1       -0.2301
      4  N2        -2.6870    0.4340    0.9910 N.am    1  UNL1       -0.2300
      5  C2        -3.9550    0.0800    0.4390 C.2     1  UNL1        0.2637
      6  O2        -3.8730   -0.4190   -0.7300 O.2     1  UNL1       -0.2685
      7  C3        -5.2220    0.2530    1.1010 C.ar    1  UNL1        0.0795
      8  C4        -5.2390    0.8000    2.3680 C.ar    1  UNL1       -0.0460
      9  C5        -6.4240    0.9960    3.0680 C.ar    1  UNL1       -0.0608
     10  C6        -7.6270    0.6450    2.5060 C.ar    1  UNL1       -0.0583
     11  C7        -7.6260    0.1050    1.2600 C.ar    1  UNL1       -0.0194
     12  C8        -6.4120   -0.0920    0.5500 C.ar    1  UNL1        0.1290
     13  O3        -6.5270   -0.6410   -0.6940 O.3     1  UNL1       -0.5060
     14  C9         0.2820   -1.3620   -0.6080 C.ar    1  UNL1        0.0400
     15  C10        0.7170   -2.6630   -0.6990 C.ar    1  UNL1       -0.0495
     16  C11        1.8820   -2.9970   -1.3950 C.ar    1  UNL1       -0.0592
     17  C12        2.6120   -1.9970   -2.0050 C.ar    1  UNL1       -0.0353
     18  C13        2.1610   -0.7130   -1.9010 C.ar    1  UNL1        0.1062
     19  S1         3.0500    0.5650   -2.6520 S.O2    1  UNL1        0.0609
     20  O4         3.7080    0.1190   -3.9380 O.2     1  UNL1       -0.1528
     21  O5         2.0910    1.6580   -3.0300 O.2     1  UNL1       -0.1528
     22  N3         4.2380    1.2490   -1.6270 N.3     1  UNL1       -0.1766
     23  C14        5.2470    0.3570   -1.2000 C.3     1  UNL1        0.0205
     24  C15        5.0280   -0.2300    0.1790 C.3     1  UNL1       -0.0385
     25  C16        4.9990    0.9810    1.1220 C.3     1  UNL1       -0.0506
     26  C17        3.7740    1.7710    0.7350 C.3     1  UNL1       -0.0385
     27  C18        3.7500    2.1820   -0.6900 C.3     1  UNL1        0.0205
     28  C19        0.9920   -0.3720   -1.2040 C.ar    1  UNL1       -0.0232
     29 H          -1.0599    0.9882   -0.1720 H       1  UNL1        0.1731
     30 H          -2.6400    0.8298    1.8912 H       1  UNL1        0.1731
     31 H          -4.3461    1.0714    2.8086 H       1  UNL1        0.0626
     32 H          -6.3996    1.4071    4.0143 H       1  UNL1        0.0618
     33 H          -8.5111    0.7883    3.0187 H       1  UNL1        0.0619
     34 H          -8.5206   -0.1662    0.8227 H       1  UNL1        0.0654
     35 H          -5.7607   -0.7951   -1.2108 H       1  UNL1        0.2922
     36 H           0.1706   -3.4103   -0.2428 H       1  UNL1        0.0625
     37 H           2.1927   -3.9795   -1.4522 H       1  UNL1        0.0618
     38 H           3.4759   -2.2144   -2.5259 H       1  UNL1        0.0637
     39 H           6.1780    0.8844   -1.1941 H       1  UNL1        0.0444
     40 H           5.2344   -0.4651   -1.8848 H       1  UNL1        0.0444
     41 H           5.8286   -0.8906    0.4387 H       1  UNL1        0.0278
     42 H           4.1278   -0.8058    0.2340 H       1  UNL1        0.0278
     43 H           5.8806    1.5738    0.9950 H       1  UNL1        0.0266
     44 H           4.9673    0.6812    2.1486 H       1  UNL1        0.0266
     45 H           3.7361    2.6523    1.3406 H       1  UNL1        0.0278
     46 H           2.9302    1.1311    0.8882 H       1  UNL1        0.0278
     47 H           2.7344    2.3991   -0.9476 H       1  UNL1        0.0444
     48 H           4.4158    3.0173   -0.7526 H       1  UNL1        0.0444
     49 H           0.6795    0.6099   -1.1462 H       1  UNL1        0.0644
@<TRIPOS>BOND
     1     1     2    2
     2     2     3   am
     3     2    14    1
     4     3     4    1
     5     4     5   am
     6     5     6    2
     7     5     7    1
     8     7     8   ar
     9     7    12   ar
    10     8     9   ar
    11     9    10   ar
    12    10    11   ar
    13    11    12   ar
    14    12    13    1
    15    14    15   ar
    16    14    28   ar
    17    15    16   ar
    18    16    17   ar
    19    17    18   ar
    20    18    19    1
    21    18    28   ar
    22    19    20    2
    23    19    21    2
    24    19    22    1
    25    22    23    1
    26    22    27    1
    27    23    24    1
    28    24    25    1
    29    25    26    1
    30    26    27    1
    31     3    29    1
    32     4    30    1
    33     8    31    1
    34     9    32    1
    35    10    33    1
    36    11    34    1
    37    13    35    1
    38    15    36    1
    39    16    37    1
    40    17    38    1
    41    23    39    1
    42    23    40    1
    43    24    41    1
    44    24    42    1
    45    25    43    1
    46    25    44    1
    47    26    45    1
    48    26    46    1
    49    27    47    1
    50    27    48    1
    51    28    49    1
@<TRIPOS>MOLECULE
../data/bude_mols_rdkit_confs2/molecule_99.pdb
 49 51 0 0 0
SMALL
GASTEIGER

@<TRIPOS>ATOM
      1  O1         2.1830    1.8170   -0.1600 O.2     1  UNL1       -0.2687
      2  C1         1.2510    1.0190    0.2000 C.2     1  UNL1        0.2602
      3  N1         1.5690   -0.3450    0.2770 N.am    1  UNL1       -0.2301
      4  N2         2.8710   -0.7860   -0.0350 N.am    1  UNL1       -0.2300
      5  C2         3.9700   -0.2660    0.6690 C.2     1  UNL1        0.2637
      6  O2         3.7280    0.5950    1.5710 O.2     1  UNL1       -0.2685
      7  C3         5.3650   -0.6550    0.4260 C.ar    1  UNL1        0.0795
      8  C4         5.6820   -1.5790   -0.5300 C.ar    1  UNL1       -0.0460
      9  C5         7.0140   -1.9180   -0.7240 C.ar    1  UNL1       -0.0608
     10  C6         8.0280   -1.3500    0.0180 C.ar    1  UNL1       -0.0583
     11  C7         7.6890   -0.4140    0.9830 C.ar    1  UNL1       -0.0194
     12  C8         6.3630   -0.0850    1.1670 C.ar    1  UNL1        0.1290
     13  O3         6.0130    0.8500    2.1300 O.3     1  UNL1       -0.5060
     14  C9        -0.0720    1.5590    0.5050 C.ar    1  UNL1        0.0400
     15  C10       -0.3860    2.1550    1.7050 C.ar    1  UNL1       -0.0495
     16  C11       -1.6300    2.6720    2.0000 C.ar    1  UNL1       -0.0592
     17  C12       -2.6010    2.5800    1.0250 C.ar    1  UNL1       -0.0353
     18  C13       -2.3460    1.9950   -0.1960 C.ar    1  UNL1        0.1062
     19  S1        -3.5420    1.8600   -1.4590 S.O2    1  UNL1        0.0609
     20  O4        -2.9400    2.0110   -2.8190 O.2     1  UNL1       -0.1528
     21  O5        -4.5370    2.9710   -1.2500 O.2     1  UNL1       -0.1528
     22  N3        -4.3690    0.3870   -1.3070 N.3     1  UNL1       -0.1766
     23  C14       -5.0860    0.2300   -0.0850 C.3     1  UNL1        0.0205
     24  C15       -6.0620   -0.9190   -0.2370 C.3     1  UNL1       -0.0385
     25  C16       -5.2570   -2.1650   -0.4050 C.3     1  UNL1       -0.0506
     26  C17       -4.2720   -2.0710   -1.5180 C.3     1  UNL1       -0.0385
     27  C18       -3.6110   -0.7590   -1.7090 C.3     1  UNL1        0.0205
     28  C19       -1.0750    1.4870   -0.4440 C.ar    1  UNL1       -0.0232
     29 H           0.8818   -0.9953    0.5493 H       1  UNL1        0.1731
     30 H           3.0096   -1.4556   -0.7433 H       1  UNL1        0.1731
     31 H           4.9418   -2.0183   -1.0993 H       1  UNL1        0.0626
     32 H           7.2526   -2.6163   -1.4454 H       1  UNL1        0.0618
     33 H           9.0128   -1.6145   -0.1407 H       1  UNL1        0.0619
     34 H           8.4215    0.0316    1.5574 H       1  UNL1        0.0654
     35 H           5.1128    1.0762    2.2580 H       1  UNL1        0.2922
     36 H           0.3509    2.2186    2.4247 H       1  UNL1        0.0625
     37 H          -1.8264    3.1101    2.9135 H       1  UNL1        0.0618
     38 H          -3.5420    2.9588    1.2147 H       1  UNL1        0.0637
     39 H          -5.6211    1.1298    0.1364 H       1  UNL1        0.0444
     40 H          -4.4039    0.0250    0.7135 H       1  UNL1        0.0444
     41 H          -6.6799   -0.7634   -1.0966 H       1  UNL1        0.0278
     42 H          -6.6986   -0.9916    0.6200 H       1  UNL1        0.0278
     43 H          -5.9233   -2.9778   -0.6061 H       1  UNL1        0.0266
     44 H          -4.7065   -2.3169    0.4999 H       1  UNL1        0.0266
     45 H          -4.7841   -2.3119   -2.4261 H       1  UNL1        0.0278
     46 H          -3.4856   -2.7481   -1.2571 H       1  UNL1        0.0278
     47 H          -2.7016   -0.7648   -1.1453 H       1  UNL1        0.0444
     48 H          -3.4693   -0.6569   -2.7647 H       1  UNL1        0.0444
     49 H          -0.8764    1.0468   -1.3561 H       1  UNL1        0.0644
@<TRIPOS>BOND
     1     1     2    2
     2     2     3   am
     3     2    14    1
     4     3     4    1
     5     4     5   am
     6     5     6    2
     7     5     7    1
     8     7     8   ar
     9     7    12   ar
    10     8     9   ar
    11     9    10   ar
    12    10    11   ar
    13    11    12   ar
    14    12    13    1
    15    14    15   ar
    16    14    28   ar
    17    15    16   ar
    18    16    17   ar
    19    17    18   ar
    20    18    19    1
    21    18    28   ar
    22    19    20    2
    23    19    21    2
    24    19    22    1
    25    22    23    1
    26    22    27    1
    27    23    24    1
    28    24    25    1
    29    25    26    1
    30    26    27    1
    31     3    29    1
    32     4    30    1
    33     8    31    1
    34     9    32    1
    35    10    33    1
    36    11    34    1
    37    13    35    1
    38    15    36    1
    39    16    37    1
    40    17    38    1
    41    23    39    1
    42    23    40    1
    43    24    41    1
    44    24    42    1
    45    25    43    1
    46    25    44    1
    47    26    45    1
    48    26    46    1
    49    27    47    1
    50    27    48    1
    51    28    49    1
@<TRIPOS>MOLECULE
../data/bude_mols_rdkit_confs2/molecule_99.pdb
 49 51 0 0 0
SMALL
GASTEIGER

@<TRIPOS>ATOM
      1  O1         2.2970   -1.9890   -0.5550 O.2     1  UNL1       -0.2687
      2  C1         1.5500   -1.0880   -0.0180 C.2     1  UNL1        0.2602
      3  N1         2.0370    0.2140    0.1930 N.am    1  UNL1       -0.2301
      4  N2         3.3740    0.5440   -0.1950 N.am    1  UNL1       -0.2300
      5  C2         4.4420   -0.2120    0.3060 C.2     1  UNL1        0.2637
      6  O2         4.1820   -1.1950    1.1140 O.2     1  UNL1       -0.2685
      7  C3         5.8440    0.0080   -0.0050 C.ar    1  UNL1        0.0795
      8  C4         6.8070   -0.8490    0.5720 C.ar    1  UNL1       -0.0460
      9  C5         8.1280   -0.6770    0.2980 C.ar    1  UNL1       -0.0608
     10  C6         8.5860    0.3290   -0.5460 C.ar    1  UNL1       -0.0583
     11  C7         7.6740    1.1750   -1.1190 C.ar    1  UNL1       -0.0194
     12  C8         6.3300    0.9840   -0.8270 C.ar    1  UNL1        0.1290
     13  O3         5.4610    1.8680   -1.4330 O.3     1  UNL1       -0.5060
     14  C9         0.2120   -1.4560    0.3560 C.ar    1  UNL1        0.0400
     15  C10       -0.1140   -2.8190    0.4090 C.ar    1  UNL1       -0.0495
     16  C11       -1.3970   -3.1780    0.7570 C.ar    1  UNL1       -0.0592
     17  C12       -2.3330   -2.1910    1.0450 C.ar    1  UNL1       -0.0353
     18  C13       -2.0110   -0.8530    0.9930 C.ar    1  UNL1        0.1062
     19  S1        -3.2400    0.3530    1.3640 S.O2    1  UNL1        0.0609
     20  O4        -4.1850   -0.2860    2.3600 O.2     1  UNL1       -0.1528
     21  O5        -2.5830    1.4950    2.0380 O.2     1  UNL1       -0.1528
     22  N3        -4.0240    0.7630   -0.0850 N.3     1  UNL1       -0.1766
     23  C14       -4.6980   -0.3020   -0.7250 C.3     1  UNL1        0.0205
     24  C15       -6.0280    0.1770   -1.2540 C.3     1  UNL1       -0.0385
     25  C16       -6.7590    0.8220   -0.0780 C.3     1  UNL1       -0.0506
     26  C17       -6.0480    2.1360    0.1740 C.3     1  UNL1       -0.0385
     27  C18       -4.5840    2.0580   -0.1630 C.3     1  UNL1        0.0205
     28  C19       -0.7240   -0.5110    0.6430 C.ar    1  UNL1       -0.0232
     29 H           1.4600    0.8962    0.6063 H       1  UNL1        0.1731
     30 H           3.5420    1.2955   -0.8084 H       1  UNL1        0.1731
     31 H           6.5073   -1.6082    1.2036 H       1  UNL1        0.0626
     32 H           8.8140   -1.3148    0.7312 H       1  UNL1        0.0618
     33 H           9.5945    0.4361   -0.7370 H       1  UNL1        0.0619
     34 H           7.9772    1.9332   -1.7501 H       1  UNL1        0.0654
     35 H           4.5392    1.7976   -1.2805 H       1  UNL1        0.2922
     36 H           0.5933   -3.5383    0.1916 H       1  UNL1        0.0625
     37 H          -1.6624   -4.1742    0.8038 H       1  UNL1        0.0618
     38 H          -3.2928   -2.4679    1.3041 H       1  UNL1        0.0637
     39 H          -4.8594   -1.0930   -0.0227 H       1  UNL1        0.0444
     40 H          -4.1021   -0.6579   -1.5393 H       1  UNL1        0.0444
     41 H          -6.5938   -0.6486   -1.6324 H       1  UNL1        0.0278
     42 H          -5.8962    0.8737   -2.0553 H       1  UNL1        0.0278
     43 H          -6.7014    0.1946    0.7868 H       1  UNL1        0.0266
     44 H          -7.7974    0.9686   -0.2902 H       1  UNL1        0.0266
     45 H          -6.1514    2.3921    1.2077 H       1  UNL1        0.0278
     46 H          -6.4929    2.8786   -0.4549 H       1  UNL1        0.0278
     47 H          -4.4533    2.4170   -1.1625 H       1  UNL1        0.0444
     48 H          -4.0754    2.6496    0.5693 H       1  UNL1        0.0444
     49 H          -0.4629    0.4864    0.5972 H       1  UNL1        0.0644
@<TRIPOS>BOND
     1     1     2    2
     2     2     3   am
     3     2    14    1
     4     3     4    1
     5     4     5   am
     6     5     6    2
     7     5     7    1
     8     7     8   ar
     9     7    12   ar
    10     8     9   ar
    11     9    10   ar
    12    10    11   ar
    13    11    12   ar
    14    12    13    1
    15    14    15   ar
    16    14    28   ar
    17    15    16   ar
    18    16    17   ar
    19    17    18   ar
    20    18    19    1
    21    18    28   ar
    22    19    20    2
    23    19    21    2
    24    19    22    1
    25    22    23    1
    26    22    27    1
    27    23    24    1
    28    24    25    1
    29    25    26    1
    30    26    27    1
    31     3    29    1
    32     4    30    1
    33     8    31    1
    34     9    32    1
    35    10    33    1
    36    11    34    1
    37    13    35    1
    38    15    36    1
    39    16    37    1
    40    17    38    1
    41    23    39    1
    42    23    40    1
    43    24    41    1
    44    24    42    1
    45    25    43    1
    46    25    44    1
    47    26    45    1
    48    26    46    1
    49    27    47    1
    50    27    48    1
    51    28    49    1
@<TRIPOS>MOLECULE
../data/bude_mols_rdkit_confs2/molecule_99.pdb
 49 51 0 0 0
SMALL
GASTEIGER

@<TRIPOS>ATOM
      1  O1         2.0810    0.0910   -1.3530 O.2     1  UNL1       -0.2687
      2  C1         1.6340    0.4650   -0.2470 C.2     1  UNL1        0.2602
      3  N1         2.5180    0.7390    0.8010 N.am    1  UNL1       -0.2301
      4  N2         3.8960    0.6690    0.8270 N.am    1  UNL1       -0.2300
      5  C2         4.7960   -0.0240    0.0240 C.2     1  UNL1        0.2637
      6  O2         4.3100   -0.7210   -0.9050 O.2     1  UNL1       -0.2685
      7  C3         6.2620    0.0150    0.1920 C.ar    1  UNL1        0.0795
      8  C4         6.8040    0.7700    1.2140 C.ar    1  UNL1       -0.0460
      9  C5         8.1950    0.7670    1.3280 C.ar    1  UNL1       -0.0608
     10  C6         9.0060    0.0660    0.4950 C.ar    1  UNL1       -0.0583
     11  C7         8.4450   -0.6640   -0.4970 C.ar    1  UNL1       -0.0194
     12  C8         7.0420   -0.7060   -0.6740 C.ar    1  UNL1        0.1290
     13  O3         6.6430   -1.4780   -1.7140 O.3     1  UNL1       -0.5060
     14  C9         0.1670    0.6130   -0.0710 C.ar    1  UNL1        0.0400
     15  C10       -0.2690    1.7100    0.6430 C.ar    1  UNL1       -0.0495
     16  C11       -1.6100    1.9220    0.8240 C.ar    1  UNL1       -0.0592
     17  C12       -2.5090    1.0070    0.2700 C.ar    1  UNL1       -0.0353
     18  C13       -2.1100   -0.0950   -0.4460 C.ar    1  UNL1        0.1062
     19  S1        -3.2170   -1.2340   -1.1700 S.O2    1  UNL1        0.0609
     20  O4        -3.2090   -1.1490   -2.6700 O.2     1  UNL1       -0.1528
     21  O5        -2.6700   -2.6180   -0.8280 O.2     1  UNL1       -0.1528
     22  N3        -4.7840   -1.1400   -0.5210 N.3     1  UNL1       -0.1766
     23  C14       -4.9360   -1.4060    0.8320 C.3     1  UNL1        0.0205
     24  C15       -6.1180   -0.9160    1.5610 C.3     1  UNL1       -0.0385
     25  C16       -6.6090    0.3820    0.9740 C.3     1  UNL1       -0.0506
     26  C17       -6.9200    0.0910   -0.4840 C.3     1  UNL1       -0.0385
     27  C18       -5.6660   -0.2860   -1.1930 C.3     1  UNL1        0.0205
     28  C19       -0.7360   -0.2770   -0.6070 C.ar    1  UNL1       -0.0232
     29 H           2.0957    1.0235    1.6436 H       1  UNL1        0.1731
     30 H           4.3160    1.2036    1.5391 H       1  UNL1        0.1731
     31 H           6.2092    1.3100    1.8618 H       1  UNL1        0.0626
     32 H           8.6276    1.3241    2.0813 H       1  UNL1        0.0618
     33 H          10.0306    0.0893    0.6159 H       1  UNL1        0.0619
     34 H           9.0522   -1.2002   -1.1364 H       1  UNL1        0.0654
     35 H           5.7308   -1.5665   -1.9088 H       1  UNL1        0.2922
     36 H           0.4159    2.3715    1.0411 H       1  UNL1        0.0625
     37 H          -1.9484    2.7383    1.3570 H       1  UNL1        0.0618
     38 H          -3.5196    1.1666    0.4051 H       1  UNL1        0.0637
     39 H          -4.0797   -0.9938    1.3237 H       1  UNL1        0.0444
     40 H          -5.0612   -2.4684    0.8562 H       1  UNL1        0.0444
     41 H          -5.8577   -0.7606    2.5872 H       1  UNL1        0.0278
     42 H          -6.8970   -1.6451    1.4805 H       1  UNL1        0.0278
     43 H          -5.8518    1.1342    1.0497 H       1  UNL1        0.0266
     44 H          -7.4707    0.7459    1.4935 H       1  UNL1        0.0266
     45 H          -7.3393    0.9633   -0.9403 H       1  UNL1        0.0278
     46 H          -7.6208   -0.7153   -0.5453 H       1  UNL1        0.0278
     47 H          -5.9451   -0.7662   -2.1076 H       1  UNL1        0.0444
     48 H          -5.1277    0.6315   -1.3086 H       1  UNL1        0.0444
     49 H          -0.3909   -1.0926   -1.1369 H       1  UNL1        0.0644
@<TRIPOS>BOND
     1     1     2    2
     2     2     3   am
     3     2    14    1
     4     3     4    1
     5     4     5   am
     6     5     6    2
     7     5     7    1
     8     7     8   ar
     9     7    12   ar
    10     8     9   ar
    11     9    10   ar
    12    10    11   ar
    13    11    12   ar
    14    12    13    1
    15    14    15   ar
    16    14    28   ar
    17    15    16   ar
    18    16    17   ar
    19    17    18   ar
    20    18    19    1
    21    18    28   ar
    22    19    20    2
    23    19    21    2
    24    19    22    1
    25    22    23    1
    26    22    27    1
    27    23    24    1
    28    24    25    1
    29    25    26    1
    30    26    27    1
    31     3    29    1
    32     4    30    1
    33     8    31    1
    34     9    32    1
    35    10    33    1
    36    11    34    1
    37    13    35    1
    38    15    36    1
    39    16    37    1
    40    17    38    1
    41    23    39    1
    42    23    40    1
    43    24    41    1
    44    24    42    1
    45    25    43    1
    46    25    44    1
    47    26    45    1
    48    26    46    1
    49    27    47    1
    50    27    48    1
    51    28    49    1
@<TRIPOS>MOLECULE
../data/bude_mols_rdkit_confs2/molecule_99.pdb
 49 51 0 0 0
SMALL
GASTEIGER

@<TRIPOS>ATOM
      1  O1         1.6950    0.4430    0.8340 O.2     1  UNL1       -0.2687
      2  C1         1.6370   -0.7290    0.3810 C.2     1  UNL1        0.2602
      3  N1         2.7670   -1.5260    0.1200 N.am    1  UNL1       -0.2301
      4  N2         4.0540   -0.9950    0.3970 N.am    1  UNL1       -0.2300
      5  C2         4.6660    0.0100   -0.3560 C.2     1  UNL1        0.2637
      6  O2         3.9840    0.4490   -1.3540 O.2     1  UNL1       -0.2685
      7  C3         5.9530    0.5900   -0.1300 C.ar    1  UNL1        0.0795
      8  C4         6.3780    1.6260   -0.9650 C.ar    1  UNL1       -0.0460
      9  C5         7.5820    2.2690   -0.8090 C.ar    1  UNL1       -0.0608
     10  C6         8.4250    1.8910    0.2120 C.ar    1  UNL1       -0.0583
     11  C7         8.0550    0.8840    1.0520 C.ar    1  UNL1       -0.0194
     12  C8         6.8250    0.2500    0.8660 C.ar    1  UNL1        0.1290
     13  O3         6.5090   -0.7630    1.7440 O.3     1  UNL1       -0.5060
     14  C9         0.3000   -1.2990    0.1120 C.ar    1  UNL1        0.0400
     15  C10        0.1290   -2.4080   -0.6870 C.ar    1  UNL1       -0.0495
     16  C11       -1.1420   -2.9540   -0.8760 C.ar    1  UNL1       -0.0592
     17  C12       -2.2060   -2.3580   -0.2470 C.ar    1  UNL1       -0.0353
     18  C13       -2.0810   -1.2350    0.5700 C.ar    1  UNL1        0.1062
     19  S1        -3.4550   -0.5730    1.3860 S.O2    1  UNL1        0.0609
     20  O4        -2.9260    0.5230    2.3130 O.2     1  UNL1       -0.1528
     21  O5        -3.9930   -1.6360    2.3280 O.2     1  UNL1       -0.1528
     22  N3        -4.6430    0.1120    0.4230 N.3     1  UNL1       -0.1766
     23  C14       -4.3490    1.2040   -0.3860 C.3     1  UNL1        0.0205
     24  C15       -5.5960    1.8100   -0.9880 C.3     1  UNL1       -0.0385
     25  C16       -6.6470    1.8280    0.1340 C.3     1  UNL1       -0.0506
     26  C17       -7.0710    0.3840    0.2750 C.3     1  UNL1       -0.0385
     27  C18       -5.8980   -0.5170    0.4070 C.3     1  UNL1        0.0205
     28  C19       -0.8060   -0.7380    0.7210 C.ar    1  UNL1       -0.0232
     29 H           2.6670   -2.4339   -0.2474 H       1  UNL1        0.1731
     30 H           4.5464   -1.3579    1.1685 H       1  UNL1        0.1731
     31 H           5.7584    1.9223   -1.7353 H       1  UNL1        0.0626
     32 H           7.8525    3.0295   -1.4521 H       1  UNL1        0.0618
     33 H           9.3314    2.3674    0.3402 H       1  UNL1        0.0619
     34 H           8.6793    0.5920    1.8201 H       1  UNL1        0.0654
     35 H           5.6946   -1.2187    1.6600 H       1  UNL1        0.2922
     36 H           0.9456   -2.8380   -1.1488 H       1  UNL1        0.0625
     37 H          -1.2778   -3.7845   -1.4734 H       1  UNL1        0.0618
     38 H          -3.1458   -2.7611   -0.3856 H       1  UNL1        0.0637
     39 H          -3.7028    0.8849   -1.1768 H       1  UNL1        0.0444
     40 H          -3.8771    1.9489    0.2202 H       1  UNL1        0.0444
     41 H          -5.9390    1.2149   -1.8084 H       1  UNL1        0.0278
     42 H          -5.4095    2.7942   -1.3641 H       1  UNL1        0.0278
     43 H          -7.4799    2.4424   -0.1372 H       1  UNL1        0.0266
     44 H          -6.2618    2.2310    1.0473 H       1  UNL1        0.0266
     45 H          -7.6318    0.1001   -0.5909 H       1  UNL1        0.0278
     46 H          -7.6653    0.2934    1.1602 H       1  UNL1        0.0278
     47 H          -6.0038   -1.0618    1.3218 H       1  UNL1        0.0444
     48 H          -5.9038   -1.1317   -0.4688 H       1  UNL1        0.0444
     49 H          -0.6699    0.0931    1.3175 H       1  UNL1        0.0644
@<TRIPOS>BOND
     1     1     2    2
     2     2     3   am
     3     2    14    1
     4     3     4    1
     5     4     5   am
     6     5     6    2
     7     5     7    1
     8     7     8   ar
     9     7    12   ar
    10     8     9   ar
    11     9    10   ar
    12    10    11   ar
    13    11    12   ar
    14    12    13    1
    15    14    15   ar
    16    14    28   ar
    17    15    16   ar
    18    16    17   ar
    19    17    18   ar
    20    18    19    1
    21    18    28   ar
    22    19    20    2
    23    19    21    2
    24    19    22    1
    25    22    23    1
    26    22    27    1
    27    23    24    1
    28    24    25    1
    29    25    26    1
    30    26    27    1
    31     3    29    1
    32     4    30    1
    33     8    31    1
    34     9    32    1
    35    10    33    1
    36    11    34    1
    37    13    35    1
    38    15    36    1
    39    16    37    1
    40    17    38    1
    41    23    39    1
    42    23    40    1
    43    24    41    1
    44    24    42    1
    45    25    43    1
    46    25    44    1
    47    26    45    1
    48    26    46    1
    49    27    47    1
    50    27    48    1
    51    28    49    1
@<TRIPOS>MOLECULE
../data/bude_mols_rdkit_confs2/molecule_99.pdb
 49 51 0 0 0
SMALL
GASTEIGER

@<TRIPOS>ATOM
      1  O1        -2.1120   -2.6920   -0.8120 O.2     1  UNL1       -0.2687
      2  C1        -1.3420   -1.7420   -0.4530 C.2     1  UNL1        0.2602
      3  N1        -1.9470   -0.4540   -0.4860 N.am    1  UNL1       -0.2301
      4  N2        -3.3070   -0.3150   -0.8760 N.am    1  UNL1       -0.2300
      5  C2        -4.2510    0.3060   -0.0360 C.2     1  UNL1        0.2637
      6  O2        -3.7520    0.7390    1.0660 O.2     1  UNL1       -0.2685
      7  C3        -5.6580    0.4900   -0.2700 C.ar    1  UNL1        0.0795
      8  C4        -6.4040    1.0600    0.7700 C.ar    1  UNL1       -0.0460
      9  C5        -7.7720    1.2130    0.6690 C.ar    1  UNL1       -0.0608
     10  C6        -8.4400    0.8090   -0.4540 C.ar    1  UNL1       -0.0583
     11  C7        -7.7450    0.2530   -1.4800 C.ar    1  UNL1       -0.0194
     12  C8        -6.3570    0.1060   -1.3650 C.ar    1  UNL1        0.1290
     13  O3        -5.6830   -0.4490   -2.4300 O.3     1  UNL1       -0.5060
     14  C9         0.0250   -2.0140   -0.0490 C.ar    1  UNL1        0.0400
     15  C10        0.5270   -3.2610   -0.3120 C.ar    1  UNL1       -0.0495
     16  C11        1.7840   -3.6080    0.0760 C.ar    1  UNL1       -0.0592
     17  C12        2.5510   -2.6810    0.7420 C.ar    1  UNL1       -0.0353
     18  C13        2.0810   -1.4190    1.0220 C.ar    1  UNL1        0.1062
     19  S1         3.0770   -0.2920    1.9030 S.O2    1  UNL1        0.0609
     20  O4         2.2090    0.6960    2.6640 O.2     1  UNL1       -0.1528
     21  O5         3.8830   -1.0920    2.9230 O.2     1  UNL1       -0.1528
     22  N3         4.1540    0.4720    0.8820 N.3     1  UNL1       -0.1766
     23  C14        4.0490    1.8480    0.6280 C.3     1  UNL1        0.0205
     24  C15        5.3990    2.5150    0.3990 C.3     1  UNL1       -0.0385
     25  C16        6.4800    1.5050    0.0710 C.3     1  UNL1       -0.0506
     26  C17        5.8960    0.4150   -0.8280 C.3     1  UNL1       -0.0385
     27  C18        4.8530   -0.3470   -0.0280 C.3     1  UNL1        0.0205
     28  C19        0.8050   -1.1020    0.6140 C.ar    1  UNL1       -0.0232
     29 H          -1.4229    0.3417   -0.2384 H       1  UNL1        0.1731
     30 H          -3.5948   -0.6602   -1.7519 H       1  UNL1        0.1731
     31 H          -5.9216    1.3713    1.6276 H       1  UNL1        0.0626
     32 H          -8.2968    1.6371    1.4498 H       1  UNL1        0.0618
     33 H          -9.4632    0.9256   -0.5212 H       1  UNL1        0.0619
     34 H          -8.2339   -0.0574   -2.3342 H       1  UNL1        0.0654
     35 H          -4.7539   -0.5627   -2.3885 H       1  UNL1        0.2922
     36 H          -0.0577   -3.9484   -0.8126 H       1  UNL1        0.0625
     37 H           2.1551   -4.5496   -0.1258 H       1  UNL1        0.0618
     38 H           3.5048   -2.9391    1.0397 H       1  UNL1        0.0637
     39 H           3.5760    2.3145    1.4667 H       1  UNL1        0.0444
     40 H           3.4774    1.9655   -0.2689 H       1  UNL1        0.0444
     41 H           5.6780    3.0446    1.2859 H       1  UNL1        0.0278
     42 H           5.3032    3.1803   -0.4336 H       1  UNL1        0.0278
     43 H           6.8446    1.0650    0.9756 H       1  UNL1        0.0266
     44 H           7.2860    1.9938   -0.4352 H       1  UNL1        0.0266
     45 H           6.6721   -0.2520   -1.1405 H       1  UNL1        0.0278
     46 H           5.4508    0.8507   -1.6980 H       1  UNL1        0.0278
     47 H           4.1494   -0.7792   -0.7085 H       1  UNL1        0.0444
     48 H           5.3668   -1.0936    0.5408 H       1  UNL1        0.0444
     49 H           0.4289   -0.1613    0.8107 H       1  UNL1        0.0644
@<TRIPOS>BOND
     1     1     2    2
     2     2     3   am
     3     2    14    1
     4     3     4    1
     5     4     5   am
     6     5     6    2
     7     5     7    1
     8     7     8   ar
     9     7    12   ar
    10     8     9   ar
    11     9    10   ar
    12    10    11   ar
    13    11    12   ar
    14    12    13    1
    15    14    15   ar
    16    14    28   ar
    17    15    16   ar
    18    16    17   ar
    19    17    18   ar
    20    18    19    1
    21    18    28   ar
    22    19    20    2
    23    19    21    2
    24    19    22    1
    25    22    23    1
    26    22    27    1
    27    23    24    1
    28    24    25    1
    29    25    26    1
    30    26    27    1
    31     3    29    1
    32     4    30    1
    33     8    31    1
    34     9    32    1
    35    10    33    1
    36    11    34    1
    37    13    35    1
    38    15    36    1
    39    16    37    1
    40    17    38    1
    41    23    39    1
    42    23    40    1
    43    24    41    1
    44    24    42    1
    45    25    43    1
    46    25    44    1
    47    26    45    1
    48    26    46    1
    49    27    47    1
    50    27    48    1
    51    28    49    1
@<TRIPOS>MOLECULE
../data/bude_mols_rdkit_confs2/molecule_99.pdb
 49 51 0 0 0
SMALL
GASTEIGER

@<TRIPOS>ATOM
      1  O1        -1.9920    1.8770    0.4120 O.2     1  UNL1       -0.2687
      2  C1        -1.1970    1.0380   -0.1090 C.2     1  UNL1        0.2602
      3  N1        -1.6970   -0.2670   -0.3000 N.am    1  UNL1       -0.2301
      4  N2        -3.0130   -0.6560    0.0530 N.am    1  UNL1       -0.2300
      5  C2        -4.1500    0.0170   -0.4320 C.2     1  UNL1        0.2637
      6  O2        -3.9110    0.9970   -1.2040 O.2     1  UNL1       -0.2685
      7  C3        -5.5310   -0.3200   -0.1240 C.ar    1  UNL1        0.0795
      8  C4        -5.8860   -1.3630    0.6880 C.ar    1  UNL1       -0.0460
      9  C5        -7.2080   -1.6460    0.9450 C.ar    1  UNL1       -0.0608
     10  C6        -8.1870   -0.8660    0.3750 C.ar    1  UNL1       -0.0583
     11  C7        -7.8750    0.2010   -0.4550 C.ar    1  UNL1       -0.0194
     12  C8        -6.5520    0.4550   -0.6900 C.ar    1  UNL1        0.1290
     13  O3        -6.1890    1.5140   -1.5150 O.3     1  UNL1       -0.5060
     14  C9         0.1750    1.4520   -0.4830 C.ar    1  UNL1        0.0400
     15  C10        0.4870    2.7870   -0.4170 C.ar    1  UNL1       -0.0495
     16  C11        1.7280    3.2450   -0.7560 C.ar    1  UNL1       -0.0592
     17  C12        2.6730    2.3160   -1.1710 C.ar    1  UNL1       -0.0353
     18  C13        2.3900    0.9740   -1.2460 C.ar    1  UNL1        0.1062
     19  S1         3.5890   -0.1430   -1.7720 S.O2    1  UNL1        0.0609
     20  O4         4.4930    0.5020   -2.7790 O.2     1  UNL1       -0.1528
     21  O5         2.9220   -1.3010   -2.4680 O.2     1  UNL1       -0.1528
     22  N3         4.5880   -0.7500   -0.4980 N.3     1  UNL1       -0.1766
     23  C14        5.2830    0.3490    0.0820 C.3     1  UNL1        0.0205
     24  C15        5.8250    0.1430    1.4530 C.3     1  UNL1       -0.0385
     25  C16        5.8390   -1.3440    1.7400 C.3     1  UNL1       -0.0506
     26  C17        4.3780   -1.7640    1.7300 C.3     1  UNL1       -0.0385
     27  C18        3.7130   -1.4360    0.4260 C.3     1  UNL1        0.0205
     28  C19        1.1200    0.5580   -0.8930 C.ar    1  UNL1       -0.0232
     29 H          -1.1014   -0.9419   -0.6988 H       1  UNL1        0.1731
     30 H          -3.1362   -1.4229    0.6579 H       1  UNL1        0.1731
     31 H          -5.1499   -1.9470    1.1147 H       1  UNL1        0.0626
     32 H          -7.4622   -2.4354    1.5592 H       1  UNL1        0.0618
     33 H          -9.1777   -1.0796    0.5695 H       1  UNL1        0.0619
     34 H          -8.6146    0.7820   -0.8797 H       1  UNL1        0.0654
     35 H          -5.2836    1.6914   -1.6786 H       1  UNL1        0.2922
     36 H          -0.2314    3.4588   -0.1046 H       1  UNL1        0.0625
     37 H           1.9564    4.2501   -0.7054 H       1  UNL1        0.0618
     38 H           3.6164    2.6438   -1.4309 H       1  UNL1        0.0637
     39 H           4.6068    1.1773    0.1208 H       1  UNL1        0.0444
     40 H           6.1393    0.5032   -0.5409 H       1  UNL1        0.0444
     41 H           5.2042    0.6434    2.1665 H       1  UNL1        0.0278
     42 H           6.8158    0.5412    1.5215 H       1  UNL1        0.0278
     43 H           6.2789   -1.5378    2.6960 H       1  UNL1        0.0266
     44 H           6.4164   -1.8855    1.0200 H       1  UNL1        0.0266
     45 H           3.8654   -1.2533    2.5183 H       1  UNL1        0.0278
     46 H           4.3358   -2.8243    1.8674 H       1  UNL1        0.0278
     47 H           3.3849   -2.3476   -0.0281 H       1  UNL1        0.0444
     48 H           2.8957   -0.7794    0.6400 H       1  UNL1        0.0444
     49 H           0.8830   -0.4453   -0.9404 H       1  UNL1        0.0644
@<TRIPOS>BOND
     1     1     2    2
     2     2     3   am
     3     2    14    1
     4     3     4    1
     5     4     5   am
     6     5     6    2
     7     5     7    1
     8     7     8   ar
     9     7    12   ar
    10     8     9   ar
    11     9    10   ar
    12    10    11   ar
    13    11    12   ar
    14    12    13    1
    15    14    15   ar
    16    14    28   ar
    17    15    16   ar
    18    16    17   ar
    19    17    18   ar
    20    18    19    1
    21    18    28   ar
    22    19    20    2
    23    19    21    2
    24    19    22    1
    25    22    23    1
    26    22    27    1
    27    23    24    1
    28    24    25    1
    29    25    26    1
    30    26    27    1
    31     3    29    1
    32     4    30    1
    33     8    31    1
    34     9    32    1
    35    10    33    1
    36    11    34    1
    37    13    35    1
    38    15    36    1
    39    16    37    1
    40    17    38    1
    41    23    39    1
    42    23    40    1
    43    24    41    1
    44    24    42    1
    45    25    43    1
    46    25    44    1
    47    26    45    1
    48    26    46    1
    49    27    47    1
    50    27    48    1
    51    28    49    1
@<TRIPOS>MOLECULE
../data/bude_mols_rdkit_confs2/molecule_99.pdb
 49 51 0 0 0
SMALL
GASTEIGER

@<TRIPOS>ATOM
      1  O1        -2.2550    2.4580    0.0940 O.2     1  UNL1       -0.2687
      2  C1        -1.4070    1.6140    0.4890 C.2     1  UNL1        0.2602
      3  N1        -1.9220    0.3740    0.9230 N.am    1  UNL1       -0.2301
      4  N2        -3.2820    0.0420    0.9380 N.am    1  UNL1       -0.2300
      5  C2        -4.1150    0.1030   -0.1910 C.2     1  UNL1        0.2637
      6  O2        -3.5000    0.4980   -1.2540 O.2     1  UNL1       -0.2685
      7  C3        -5.5230   -0.2180   -0.2700 C.ar    1  UNL1        0.0795
      8  C4        -6.1720   -0.0810   -1.5050 C.ar    1  UNL1       -0.0460
      9  C5        -7.5120   -0.3590   -1.6740 C.ar    1  UNL1       -0.0608
     10  C6        -8.2840   -0.7920   -0.6190 C.ar    1  UNL1       -0.0583
     11  C7        -7.6610   -0.9310    0.5930 C.ar    1  UNL1       -0.0194
     12  C8        -6.2850   -0.6450    0.7690 C.ar    1  UNL1        0.1290
     13  O3        -5.7220   -0.8070    2.0170 O.3     1  UNL1       -0.5060
     14  C9        -0.0030    1.9850    0.4630 C.ar    1  UNL1        0.0400
     15  C10        0.3600    3.2080   -0.0410 C.ar    1  UNL1       -0.0495
     16  C11        1.6630    3.6500   -0.1100 C.ar    1  UNL1       -0.0592
     17  C12        2.6140    2.7700    0.3680 C.ar    1  UNL1       -0.0353
     18  C13        2.2840    1.5410    0.8780 C.ar    1  UNL1        0.1062
     19  S1         3.5230    0.4710    1.4600 S.O2    1  UNL1        0.0609
     20  O4         4.6560    1.2690    2.0900 O.2     1  UNL1       -0.1528
     21  O5         2.9310   -0.3350    2.5960 O.2     1  UNL1       -0.1528
     22  N3         4.1020   -0.5890    0.2830 N.3     1  UNL1       -0.1766
     23  C14        4.7160   -0.0710   -0.8490 C.3     1  UNL1        0.0205
     24  C15        5.6220   -0.9460   -1.6220 C.3     1  UNL1       -0.0385
     25  C16        6.1790   -2.0300   -0.7320 C.3     1  UNL1       -0.0506
     26  C17        4.9920   -2.8240   -0.2300 C.3     1  UNL1       -0.0385
     27  C18        4.0050   -1.9580    0.4990 C.3     1  UNL1        0.0205
     28  C19        0.9760    1.1460    0.9260 C.ar    1  UNL1       -0.0232
     29 H          -1.2810   -0.3042    1.2368 H       1  UNL1        0.1731
     30 H          -3.6778   -0.2516    1.7903 H       1  UNL1        0.1731
     31 H          -5.6256    0.2404   -2.3194 H       1  UNL1        0.0626
     32 H          -7.9425   -0.2409   -2.6044 H       1  UNL1        0.0618
     33 H          -9.2875   -1.0024   -0.7363 H       1  UNL1        0.0619
     34 H          -8.2117   -1.2544    1.4036 H       1  UNL1        0.0654
     35 H          -4.8130   -0.6217    2.1485 H       1  UNL1        0.2922
     36 H          -0.3849    3.8322   -0.3881 H       1  UNL1        0.0625
     37 H           1.9115    4.5756   -0.4928 H       1  UNL1        0.0618
     38 H           3.6077    3.0472    0.3403 H       1  UNL1        0.0637
     39 H           5.2868    0.7789   -0.5379 H       1  UNL1        0.0444
     40 H           3.9059    0.1257   -1.5198 H       1  UNL1        0.0444
     41 H           6.4277   -0.3621   -2.0154 H       1  UNL1        0.0278
     42 H           5.0747   -1.3970   -2.4232 H       1  UNL1        0.0278
     43 H           6.7091   -1.5972    0.0906 H       1  UNL1        0.0266
     44 H           6.8655   -2.6543   -1.2649 H       1  UNL1        0.0266
     45 H           5.3419   -3.5851    0.4357 H       1  UNL1        0.0278
     46 H           4.4963   -3.2497   -1.0773 H       1  UNL1        0.0278
     47 H           3.0234   -2.2648    0.2037 H       1  UNL1        0.0444
     48 H           4.2207   -2.0963    1.5379 H       1  UNL1        0.0444
     49 H           0.7274    0.2205    1.3091 H       1  UNL1        0.0644
@<TRIPOS>BOND
     1     1     2    2
     2     2     3   am
     3     2    14    1
     4     3     4    1
     5     4     5   am
     6     5     6    2
     7     5     7    1
     8     7     8   ar
     9     7    12   ar
    10     8     9   ar
    11     9    10   ar
    12    10    11   ar
    13    11    12   ar
    14    12    13    1
    15    14    15   ar
    16    14    28   ar
    17    15    16   ar
    18    16    17   ar
    19    17    18   ar
    20    18    19    1
    21    18    28   ar
    22    19    20    2
    23    19    21    2
    24    19    22    1
    25    22    23    1
    26    22    27    1
    27    23    24    1
    28    24    25    1
    29    25    26    1
    30    26    27    1
    31     3    29    1
    32     4    30    1
    33     8    31    1
    34     9    32    1
    35    10    33    1
    36    11    34    1
    37    13    35    1
    38    15    36    1
    39    16    37    1
    40    17    38    1
    41    23    39    1
    42    23    40    1
    43    24    41    1
    44    24    42    1
    45    25    43    1
    46    25    44    1
    47    26    45    1
    48    26    46    1
    49    27    47    1
    50    27    48    1
    51    28    49    1
@<TRIPOS>MOLECULE
../data/bude_mols_rdkit_confs2/molecule_99.pdb
 49 51 0 0 0
SMALL
GASTEIGER

@<TRIPOS>ATOM
      1  O1        -2.2880   -2.8430   -0.4010 O.2     1  UNL1       -0.2687
      2  C1        -1.4460   -1.9420   -0.7120 C.2     1  UNL1        0.2602
      3  N1        -1.9300   -0.6230   -0.8170 N.am    1  UNL1       -0.2301
      4  N2        -3.2940   -0.2740   -0.5910 N.am    1  UNL1       -0.2300
      5  C2        -3.5860    0.5230    0.5220 C.2     1  UNL1        0.2637
      6  O2        -2.5890    0.8780    1.2560 O.2     1  UNL1       -0.2685
      7  C3        -4.9120    0.9610    0.8880 C.ar    1  UNL1        0.0795
      8  C4        -5.0070    1.7460    2.0320 C.ar    1  UNL1       -0.0460
      9  C5        -6.2410    2.1890    2.4320 C.ar    1  UNL1       -0.0608
     10  C6        -7.3590    1.8550    1.7020 C.ar    1  UNL1       -0.0583
     11  C7        -7.2520    1.0810    0.5770 C.ar    1  UNL1       -0.0194
     12  C8        -6.0070    0.6240    0.1580 C.ar    1  UNL1        0.1290
     13  O3        -6.0010   -0.1390   -0.9730 O.3     1  UNL1       -0.5060
     14  C9        -0.0690   -2.3440   -0.9310 C.ar    1  UNL1        0.0400
     15  C10        0.3030   -3.6750   -0.7870 C.ar    1  UNL1       -0.0495
     16  C11        1.6070   -4.0760   -0.9870 C.ar    1  UNL1       -0.0592
     17  C12        2.5550   -3.1150   -1.3400 C.ar    1  UNL1       -0.0353
     18  C13        2.2120   -1.7930   -1.4880 C.ar    1  UNL1        0.1062
     19  S1         3.3370   -0.5380   -1.9230 S.O2    1  UNL1        0.0609
     20  O4         2.6030    0.4320   -2.8110 O.2     1  UNL1       -0.1528
     21  O5         4.4470   -1.1270   -2.7780 O.2     1  UNL1       -0.1528
     22  N3         4.0010    0.1620   -0.5730 N.3     1  UNL1       -0.1766
     23  C14        3.1370    0.8200    0.3410 C.3     1  UNL1        0.0205
     24  C15        3.7670    2.1860    0.6460 C.3     1  UNL1       -0.0385
     25  C16        5.2590    1.9900    0.6440 C.3     1  UNL1       -0.0506
     26  C17        5.6310    0.5730    1.0880 C.3     1  UNL1       -0.0385
     27  C18        5.1920   -0.3860   -0.0300 C.3     1  UNL1        0.0205
     28  C19        0.8820   -1.4290   -1.2760 C.ar    1  UNL1       -0.0232
     29 H          -1.2967    0.0913   -1.0577 H       1  UNL1        0.1731
     30 H          -4.0058   -0.5830   -1.1969 H       1  UNL1        0.1731
     31 H          -4.1619    1.9911    2.5712 H       1  UNL1        0.0626
     32 H          -6.3316    2.7718    3.2788 H       1  UNL1        0.0618
     33 H          -8.2866    2.1909    2.0051 H       1  UNL1        0.0619
     34 H          -8.0977    0.8362    0.0386 H       1  UNL1        0.0654
     35 H          -5.1929   -0.4768   -1.3060 H       1  UNL1        0.2922
     36 H          -0.4087   -4.3753   -0.5260 H       1  UNL1        0.0625
     37 H           1.8762   -5.0663   -0.8779 H       1  UNL1        0.0618
     38 H           3.5340   -3.4033   -1.4931 H       1  UNL1        0.0637
     39 H           3.0476    0.2471    1.2403 H       1  UNL1        0.0444
     40 H           2.1570    0.9342   -0.0730 H       1  UNL1        0.0444
     41 H           3.4431    2.5348    1.6043 H       1  UNL1        0.0278
     42 H           3.4755    2.9133   -0.0827 H       1  UNL1        0.0278
     43 H           5.7046    2.6944    1.3149 H       1  UNL1        0.0266
     44 H           5.6193    2.1387   -0.3525 H       1  UNL1        0.0266
     45 H           5.1248    0.3299    1.9988 H       1  UNL1        0.0278
     46 H           6.6837    0.4947    1.2627 H       1  UNL1        0.0278
     47 H           5.9490   -0.4492   -0.7836 H       1  UNL1        0.0444
     48 H           5.0320   -1.3756    0.3441 H       1  UNL1        0.0444
     49 H           0.6099   -0.4393   -1.3832 H       1  UNL1        0.0644
@<TRIPOS>BOND
     1     1     2    2
     2     2     3   am
     3     2    14    1
     4     3     4    1
     5     4     5   am
     6     5     6    2
     7     5     7    1
     8     7     8   ar
     9     7    12   ar
    10     8     9   ar
    11     9    10   ar
    12    10    11   ar
    13    11    12   ar
    14    12    13    1
    15    14    15   ar
    16    14    28   ar
    17    15    16   ar
    18    16    17   ar
    19    17    18   ar
    20    18    19    1
    21    18    28   ar
    22    19    20    2
    23    19    21    2
    24    19    22    1
    25    22    23    1
    26    22    27    1
    27    23    24    1
    28    24    25    1
    29    25    26    1
    30    26    27    1
    31     3    29    1
    32     4    30    1
    33     8    31    1
    34     9    32    1
    35    10    33    1
    36    11    34    1
    37    13    35    1
    38    15    36    1
    39    16    37    1
    40    17    38    1
    41    23    39    1
    42    23    40    1
    43    24    41    1
    44    24    42    1
    45    25    43    1
    46    25    44    1
    47    26    45    1
    48    26    46    1
    49    27    47    1
    50    27    48    1
    51    28    49    1
@<TRIPOS>MOLECULE
../data/bude_mols_rdkit_confs2/molecule_99.pdb
 49 51 0 0 0
SMALL
GASTEIGER

@<TRIPOS>ATOM
      1  O1         1.2280    0.5020   -1.4010 O.2     1  UNL1       -0.2687
      2  C1         1.2970   -0.2420   -0.3800 C.2     1  UNL1        0.2602
      3  N1         2.5350   -0.8350   -0.1000 N.am    1  UNL1       -0.2301
      4  N2         3.7050   -0.6580   -0.8490 N.am    1  UNL1       -0.2300
      5  C2         4.9370   -0.4610   -0.1440 C.2     1  UNL1        0.2637
      6  O2         4.8350   -0.4780    1.1320 O.2     1  UNL1       -0.2685
      7  C3         6.2260   -0.2520   -0.7830 C.ar    1  UNL1        0.0795
      8  C4         6.4040   -0.1910   -2.1380 C.ar    1  UNL1       -0.0460
      9  C5         7.6580    0.0430   -2.7260 C.ar    1  UNL1       -0.0608
     10  C6         8.7370    0.2160   -1.8890 C.ar    1  UNL1       -0.0583
     11  C7         8.5910    0.1590   -0.5060 C.ar    1  UNL1       -0.0194
     12  C8         7.3290   -0.0750    0.0260 C.ar    1  UNL1        0.1290
     13  O3         7.1750   -0.1340    1.3970 O.3     1  UNL1       -0.5060
     14  C9         0.0930   -0.4320    0.4370 C.ar    1  UNL1        0.0400
     15  C10       -0.0240   -1.4570    1.3450 C.ar    1  UNL1       -0.0495
     16  C11       -1.1530   -1.5890    2.1450 C.ar    1  UNL1       -0.0592
     17  C12       -2.1980   -0.6960    2.0600 C.ar    1  UNL1       -0.0353
     18  C13       -2.1070    0.3450    1.1560 C.ar    1  UNL1        0.1062
     19  S1        -3.3360    1.5930    0.9910 S.O2    1  UNL1        0.0609
     20  O4        -3.6100    2.1380    2.3910 O.2     1  UNL1       -0.1528
     21  O5        -2.7300    2.7290    0.2130 O.2     1  UNL1       -0.1528
     22  N3        -4.7120    0.9620    0.2860 N.3     1  UNL1       -0.1766
     23  C14       -5.3280   -0.0510    1.0360 C.3     1  UNL1        0.0205
     24  C15       -6.8460    0.0800    0.8060 C.3     1  UNL1       -0.0385
     25  C16       -7.0460   -0.2850   -0.6450 C.3     1  UNL1       -0.0506
     26  C17       -6.3310    0.6860   -1.5420 C.3     1  UNL1       -0.0385
     27  C18       -4.9800    1.1140   -1.0650 C.3     1  UNL1        0.0205
     28  C19       -0.9740    0.4370    0.3830 C.ar    1  UNL1       -0.0232
     29 H           2.5867   -1.4240    0.6872 H       1  UNL1        0.1731
     30 H           3.6818   -0.6686   -1.8332 H       1  UNL1        0.1731
     31 H           5.5850   -0.3220   -2.7521 H       1  UNL1        0.0626
     32 H           7.7667    0.0839   -3.7514 H       1  UNL1        0.0618
     33 H           9.6700    0.3909   -2.2938 H       1  UNL1        0.0619
     34 H           9.4061    0.2883    0.1136 H       1  UNL1        0.0654
     35 H           6.3286   -0.2912    1.7670 H       1  UNL1        0.2922
     36 H           0.7420   -2.1427    1.4347 H       1  UNL1        0.0625
     37 H          -1.2093   -2.3713    2.8157 H       1  UNL1        0.0618
     38 H          -3.0316   -0.8021    2.6590 H       1  UNL1        0.0637
     39 H          -5.1016    0.0710    2.0746 H       1  UNL1        0.0444
     40 H          -4.9775   -1.0163    0.7355 H       1  UNL1        0.0444
     41 H          -7.1707    1.0826    0.9912 H       1  UNL1        0.0278
     42 H          -7.4109   -0.5476    1.4632 H       1  UNL1        0.0278
     43 H          -8.0918   -0.2666   -0.8706 H       1  UNL1        0.0266
     44 H          -6.6468   -1.2638   -0.8110 H       1  UNL1        0.0266
     45 H          -6.9410    1.5599   -1.6375 H       1  UNL1        0.0278
     46 H          -6.1716    0.1742   -2.4680 H       1  UNL1        0.0278
     47 H          -4.2521    0.5447   -1.6044 H       1  UNL1        0.0444
     48 H          -4.9461    2.1694   -1.2377 H       1  UNL1        0.0444
     49 H          -0.9187    1.2176   -0.2898 H       1  UNL1        0.0644
@<TRIPOS>BOND
     1     1     2    2
     2     2     3   am
     3     2    14    1
     4     3     4    1
     5     4     5   am
     6     5     6    2
     7     5     7    1
     8     7     8   ar
     9     7    12   ar
    10     8     9   ar
    11     9    10   ar
    12    10    11   ar
    13    11    12   ar
    14    12    13    1
    15    14    15   ar
    16    14    28   ar
    17    15    16   ar
    18    16    17   ar
    19    17    18   ar
    20    18    19    1
    21    18    28   ar
    22    19    20    2
    23    19    21    2
    24    19    22    1
    25    22    23    1
    26    22    27    1
    27    23    24    1
    28    24    25    1
    29    25    26    1
    30    26    27    1
    31     3    29    1
    32     4    30    1
    33     8    31    1
    34     9    32    1
    35    10    33    1
    36    11    34    1
    37    13    35    1
    38    15    36    1
    39    16    37    1
    40    17    38    1
    41    23    39    1
    42    23    40    1
    43    24    41    1
    44    24    42    1
    45    25    43    1
    46    25    44    1
    47    26    45    1
    48    26    46    1
    49    27    47    1
    50    27    48    1
    51    28    49    1
@<TRIPOS>MOLECULE
../data/bude_mols_rdkit_confs2/molecule_99.pdb
 49 51 0 0 0
SMALL
GASTEIGER

@<TRIPOS>ATOM
      1  O1        -2.5470   -0.6340   -1.7750 O.2     1  UNL1       -0.2687
      2  C1        -1.8440   -0.9290   -0.7510 C.2     1  UNL1        0.2602
      3  N1        -2.4950   -1.0840    0.4750 N.am    1  UNL1       -0.2301
      4  N2        -3.9020   -0.9050    0.5040 N.am    1  UNL1       -0.2300
      5  C2        -4.5090    0.3460    0.3140 C.2     1  UNL1        0.2637
      6  O2        -3.7100    1.3210    0.1190 O.2     1  UNL1       -0.2685
      7  C3        -5.9280    0.6240    0.3210 C.ar    1  UNL1        0.0795
      8  C4        -6.3380    1.9330    0.1340 C.ar    1  UNL1       -0.0460
      9  C5        -7.6540    2.2910    0.1370 C.ar    1  UNL1       -0.0608
     10  C6        -8.6510    1.3580    0.3290 C.ar    1  UNL1       -0.0583
     11  C7        -8.2500    0.0570    0.5150 C.ar    1  UNL1       -0.0194
     12  C8        -6.9130   -0.3100    0.5110 C.ar    1  UNL1        0.1290
     13  O3        -6.6060   -1.6340    0.7030 O.3     1  UNL1       -0.5060
     14  C9        -0.4180   -1.0720   -1.0080 C.ar    1  UNL1        0.0400
     15  C10        0.0330   -2.2640   -1.5900 C.ar    1  UNL1       -0.0495
     16  C11        1.3600   -2.4430   -1.8860 C.ar    1  UNL1       -0.0592
     17  C12        2.2860   -1.4560   -1.6220 C.ar    1  UNL1       -0.0353
     18  C13        1.8650   -0.2570   -1.0410 C.ar    1  UNL1        0.1062
     19  S1         3.0510    1.0160   -0.7760 S.O2    1  UNL1        0.0609
     20  O4         2.3940    2.0230    0.1650 O.2     1  UNL1       -0.1528
     21  O5         3.3500    1.7270   -2.0730 O.2     1  UNL1       -0.1528
     22  N3         4.4520    0.4420   -0.0330 N.3     1  UNL1       -0.1766
     23  C14        4.7550    0.8820    1.2600 C.3     1  UNL1        0.0205
     24  C15        6.2340    1.0800    1.5250 C.3     1  UNL1       -0.0385
     25  C16        7.1150    0.0040    0.9500 C.3     1  UNL1       -0.0506
     26  C17        6.5230   -0.6600   -0.2710 C.3     1  UNL1       -0.0385
     27  C18        5.6040    0.3930   -0.8950 C.3     1  UNL1        0.0205
     28  C19        0.5290   -0.1170   -0.7590 C.ar    1  UNL1       -0.0232
     29 H          -1.9941   -1.3100    1.2919 H       1  UNL1        0.1731
     30 H          -4.4752   -1.6893    0.6637 H       1  UNL1        0.1731
     31 H          -5.6233    2.6629   -0.0127 H       1  UNL1        0.0626
     32 H          -7.9089    3.2806   -0.0074 H       1  UNL1        0.0618
     33 H          -9.6483    1.6235    0.3328 H       1  UNL1        0.0619
     34 H          -8.9671   -0.6704    0.6624 H       1  UNL1        0.0654
     35 H          -5.7112   -1.9119    0.7053 H       1  UNL1        0.2922
     36 H          -0.6417   -3.0165   -1.7985 H       1  UNL1        0.0625
     37 H           1.6703   -3.3299   -2.3128 H       1  UNL1        0.0618
     38 H           3.2815   -1.6016   -1.8516 H       1  UNL1        0.0637
     39 H           4.3848    0.1576    1.9551 H       1  UNL1        0.0444
     40 H           4.2944    1.8414    1.3712 H       1  UNL1        0.0444
     41 H           6.3843    1.1059    2.5841 H       1  UNL1        0.0278
     42 H           6.5122    1.9941    1.0434 H       1  UNL1        0.0278
     43 H           7.2736   -0.7426    1.6999 H       1  UNL1        0.0266
     44 H           8.0294    0.4697    0.6470 H       1  UNL1        0.0266
     45 H           5.9634   -1.5282    0.0083 H       1  UNL1        0.0278
     46 H           7.2787   -0.9866   -0.9545 H       1  UNL1        0.0278
     47 H           6.0907    1.3454   -0.9264 H       1  UNL1        0.0444
     48 H           5.3409    0.1493   -1.9031 H       1  UNL1        0.0444
     49 H           0.2180    0.7687   -0.3301 H       1  UNL1        0.0644
@<TRIPOS>BOND
     1     1     2    2
     2     2     3   am
     3     2    14    1
     4     3     4    1
     5     4     5   am
     6     5     6    2
     7     5     7    1
     8     7     8   ar
     9     7    12   ar
    10     8     9   ar
    11     9    10   ar
    12    10    11   ar
    13    11    12   ar
    14    12    13    1
    15    14    15   ar
    16    14    28   ar
    17    15    16   ar
    18    16    17   ar
    19    17    18   ar
    20    18    19    1
    21    18    28   ar
    22    19    20    2
    23    19    21    2
    24    19    22    1
    25    22    23    1
    26    22    27    1
    27    23    24    1
    28    24    25    1
    29    25    26    1
    30    26    27    1
    31     3    29    1
    32     4    30    1
    33     8    31    1
    34     9    32    1
    35    10    33    1
    36    11    34    1
    37    13    35    1
    38    15    36    1
    39    16    37    1
    40    17    38    1
    41    23    39    1
    42    23    40    1
    43    24    41    1
    44    24    42    1
    45    25    43    1
    46    25    44    1
    47    26    45    1
    48    26    46    1
    49    27    47    1
    50    27    48    1
    51    28    49    1
@<TRIPOS>MOLECULE
../data/bude_mols_rdkit_confs2/molecule_99.pdb
 49 51 0 0 0
SMALL
GASTEIGER

@<TRIPOS>ATOM
      1  O1         2.1410   -1.1330   -1.6710 O.2     1  UNL1       -0.2687
      2  C1         1.4190   -0.5410   -0.7700 C.2     1  UNL1        0.2602
      3  N1         2.1890    0.2110    0.1750 N.am    1  UNL1       -0.2301
      4  N2         3.5910    0.2540   -0.0130 N.am    1  UNL1       -0.2300
      5  C2         4.6320    0.2160    0.8750 C.2     1  UNL1        0.2637
      6  O2         4.3680    0.1520    2.1170 O.2     1  UNL1       -0.2685
      7  C3         6.0500    0.2580    0.4720 C.ar    1  UNL1        0.0795
      8  C4         7.0000    0.4150    1.4860 C.ar    1  UNL1       -0.0460
      9  C5         8.3400    0.5750    1.2120 C.ar    1  UNL1       -0.0608
     10  C6         8.8050    0.5830   -0.1190 C.ar    1  UNL1       -0.0583
     11  C7         7.8860    0.4260   -1.0790 C.ar    1  UNL1       -0.0194
     12  C8         6.4770    0.2530   -0.8280 C.ar    1  UNL1        0.1290
     13  O3         5.7350    0.0910   -1.8950 O.3     1  UNL1       -0.5060
     14  C9        -0.0150   -0.7000   -0.8230 C.ar    1  UNL1        0.0400
     15  C10       -0.5500   -0.5230   -2.1420 C.ar    1  UNL1       -0.0495
     16  C11       -1.8860   -0.6910   -2.3530 C.ar    1  UNL1       -0.0592
     17  C12       -2.7180   -1.0250   -1.3190 C.ar    1  UNL1       -0.0353
     18  C13       -2.2400   -1.1970   -0.0270 C.ar    1  UNL1        0.1062
     19  S1        -3.3720   -1.6290    1.2010 S.O2    1  UNL1        0.0609
     20  O4        -2.6910   -1.5510    2.5510 O.2     1  UNL1       -0.1528
     21  O5        -3.8860   -3.0240    1.0000 O.2     1  UNL1       -0.1528
     22  N3        -4.7260   -0.5750    1.2370 N.3     1  UNL1       -0.1766
     23  C14       -4.4810    0.7770    1.4950 C.3     1  UNL1        0.0205
     24  C15       -4.7750    1.7270    0.3720 C.3     1  UNL1       -0.0385
     25  C16       -6.1870    1.4800   -0.0920 C.3     1  UNL1       -0.0506
     26  C17       -6.2970    0.0670   -0.5670 C.3     1  UNL1       -0.0385
     27  C18       -5.8230   -0.9450    0.4120 C.3     1  UNL1        0.0205
     28  C19       -0.8980   -1.0270    0.1730 C.ar    1  UNL1       -0.0232
     29 H           1.7594    0.6800    0.9265 H       1  UNL1        0.1731
     30 H           3.8684    0.3241   -0.9550 H       1  UNL1        0.1731
     31 H           6.6874    0.4108    2.4695 H       1  UNL1        0.0626
     32 H           9.0102    0.6901    1.9883 H       1  UNL1        0.0618
     33 H           9.8053    0.7040   -0.3420 H       1  UNL1        0.0619
     34 H           8.2059    0.4290   -2.0602 H       1  UNL1        0.0654
     35 H           4.8095   -0.0273   -1.8085 H       1  UNL1        0.2922
     36 H           0.0722   -0.2703   -2.9256 H       1  UNL1        0.0625
     37 H          -2.2737   -0.5652   -3.3011 H       1  UNL1        0.0618
     38 H          -3.7253   -1.1521   -1.5042 H       1  UNL1        0.0637
     39 H          -3.4462    0.8794    1.7473 H       1  UNL1        0.0444
     40 H          -5.1538    1.0458    2.2824 H       1  UNL1        0.0444
     41 H          -4.0931    1.5570   -0.4348 H       1  UNL1        0.0278
     42 H          -4.6651    2.7384    0.7035 H       1  UNL1        0.0278
     43 H          -6.4245    2.1484   -0.8931 H       1  UNL1        0.0266
     44 H          -6.8696    1.6467    0.7150 H       1  UNL1        0.0266
     45 H          -5.7161   -0.0327   -1.4600 H       1  UNL1        0.0278
     46 H          -7.3380   -0.1233   -0.7251 H       1  UNL1        0.0278
     47 H          -6.6449   -1.1836    1.0543 H       1  UNL1        0.0444
     48 H          -5.4648   -1.7609   -0.1804 H       1  UNL1        0.0444
     49 H          -0.5289   -1.1521    1.1286 H       1  UNL1        0.0644
@<TRIPOS>BOND
     1     1     2    2
     2     2     3   am
     3     2    14    1
     4     3     4    1
     5     4     5   am
     6     5     6    2
     7     5     7    1
     8     7     8   ar
     9     7    12   ar
    10     8     9   ar
    11     9    10   ar
    12    10    11   ar
    13    11    12   ar
    14    12    13    1
    15    14    15   ar
    16    14    28   ar
    17    15    16   ar
    18    16    17   ar
    19    17    18   ar
    20    18    19    1
    21    18    28   ar
    22    19    20    2
    23    19    21    2
    24    19    22    1
    25    22    23    1
    26    22    27    1
    27    23    24    1
    28    24    25    1
    29    25    26    1
    30    26    27    1
    31     3    29    1
    32     4    30    1
    33     8    31    1
    34     9    32    1
    35    10    33    1
    36    11    34    1
    37    13    35    1
    38    15    36    1
    39    16    37    1
    40    17    38    1
    41    23    39    1
    42    23    40    1
    43    24    41    1
    44    24    42    1
    45    25    43    1
    46    25    44    1
    47    26    45    1
    48    26    46    1
    49    27    47    1
    50    27    48    1
    51    28    49    1
@<TRIPOS>MOLECULE
../data/bude_mols_rdkit_confs2/molecule_99.pdb
 49 51 0 0 0
SMALL
GASTEIGER

@<TRIPOS>ATOM
      1  O1         1.8100   -0.2380   -1.0330 O.2     1  UNL1       -0.2687
      2  C1         1.5460    0.5660   -0.1030 C.2     1  UNL1        0.2602
      3  N1         2.5250    1.4380    0.3690 N.am    1  UNL1       -0.2301
      4  N2         3.8350    1.4350   -0.1920 N.am    1  UNL1       -0.2300
      5  C2         4.6740    0.3440    0.1450 C.2     1  UNL1        0.2637
      6  O2         4.1820   -0.5410    0.9130 O.2     1  UNL1       -0.2685
      7  C3         6.0320    0.2450   -0.3640 C.ar    1  UNL1        0.0795
      8  C4         6.4980    1.2690   -1.1870 C.ar    1  UNL1       -0.0460
      9  C5         7.7690    1.2330   -1.6810 C.ar    1  UNL1       -0.0608
     10  C6         8.5750    0.1820   -1.3620 C.ar    1  UNL1       -0.0583
     11  C7         8.1660   -0.8390   -0.5670 C.ar    1  UNL1       -0.0194
     12  C8         6.8540   -0.8110   -0.0490 C.ar    1  UNL1        0.1290
     13  O3         6.4710   -1.8550    0.7510 O.3     1  UNL1       -0.5060
     14  C9         0.2020    0.5670    0.4770 C.ar    1  UNL1        0.0400
     15  C10       -0.2260    1.4880    1.4040 C.ar    1  UNL1       -0.0495
     16  C11       -1.5060    1.4530    1.9540 C.ar    1  UNL1       -0.0592
     17  C12       -2.3710    0.4900    1.5790 C.ar    1  UNL1       -0.0353
     18  C13       -1.9590   -0.4630    0.6350 C.ar    1  UNL1        0.1062
     19  S1        -3.0520   -1.7690    0.1860 S.O2    1  UNL1        0.0609
     20  O4        -2.3090   -2.7080   -0.7330 O.2     1  UNL1       -0.1528
     21  O5        -3.3380   -2.5300    1.4550 O.2     1  UNL1       -0.1528
     22  N3        -4.4510   -1.1410   -0.4490 N.3     1  UNL1       -0.1766
     23  C14       -4.4570   -0.3630   -1.6130 C.3     1  UNL1        0.0205
     24  C15       -5.4910    0.7560   -1.3640 C.3     1  UNL1       -0.0385
     25  C16       -6.8090    0.2050   -0.9070 C.3     1  UNL1       -0.0506
     26  C17       -6.7170   -0.8440    0.1540 C.3     1  UNL1       -0.0385
     27  C18       -5.6630   -1.8760   -0.2320 C.3     1  UNL1        0.0205
     28  C19       -0.6970   -0.4300    0.0900 C.ar    1  UNL1       -0.0232
     29 H           2.3093    2.0632    1.0983 H       1  UNL1        0.1731
     30 H           4.1427    2.1573   -0.7860 H       1  UNL1        0.1731
     31 H           5.8778    2.0590   -1.4240 H       1  UNL1        0.0626
     32 H           8.1155    1.9920   -2.2884 H       1  UNL1        0.0618
     33 H           9.5350    0.1614   -1.7400 H       1  UNL1        0.0619
     34 H           8.8023   -1.6207   -0.3457 H       1  UNL1        0.0654
     35 H           5.6078   -1.8742    1.1150 H       1  UNL1        0.2922
     36 H           0.4239    2.2318    1.7031 H       1  UNL1        0.0625
     37 H          -1.7908    2.1629    2.6468 H       1  UNL1        0.0618
     38 H          -3.3213    0.4540    1.9797 H       1  UNL1        0.0637
     39 H          -4.7448   -0.9557   -2.4561 H       1  UNL1        0.0444
     40 H          -3.4873    0.0363   -1.8255 H       1  UNL1        0.0444
     41 H          -5.6394    1.2991   -2.2739 H       1  UNL1        0.0278
     42 H          -5.1118    1.3936   -0.5929 H       1  UNL1        0.0278
     43 H          -7.3031   -0.2217   -1.7547 H       1  UNL1        0.0266
     44 H          -7.3438    1.0245   -0.4742 H       1  UNL1        0.0266
     45 H          -7.6658   -1.3272    0.2593 H       1  UNL1        0.0278
     46 H          -6.4413   -0.3864    1.0811 H       1  UNL1        0.0278
     47 H          -5.5310   -2.5859    0.5577 H       1  UNL1        0.0444
     48 H          -5.9514   -2.4229   -1.1053 H       1  UNL1        0.0444
     49 H          -0.4145   -1.1402   -0.6034 H       1  UNL1        0.0644
@<TRIPOS>BOND
     1     1     2    2
     2     2     3   am
     3     2    14    1
     4     3     4    1
     5     4     5   am
     6     5     6    2
     7     5     7    1
     8     7     8   ar
     9     7    12   ar
    10     8     9   ar
    11     9    10   ar
    12    10    11   ar
    13    11    12   ar
    14    12    13    1
    15    14    15   ar
    16    14    28   ar
    17    15    16   ar
    18    16    17   ar
    19    17    18   ar
    20    18    19    1
    21    18    28   ar
    22    19    20    2
    23    19    21    2
    24    19    22    1
    25    22    23    1
    26    22    27    1
    27    23    24    1
    28    24    25    1
    29    25    26    1
    30    26    27    1
    31     3    29    1
    32     4    30    1
    33     8    31    1
    34     9    32    1
    35    10    33    1
    36    11    34    1
    37    13    35    1
    38    15    36    1
    39    16    37    1
    40    17    38    1
    41    23    39    1
    42    23    40    1
    43    24    41    1
    44    24    42    1
    45    25    43    1
    46    25    44    1
    47    26    45    1
    48    26    46    1
    49    27    47    1
    50    27    48    1
    51    28    49    1
@<TRIPOS>MOLECULE
../data/bude_mols_rdkit_confs2/molecule_99.pdb
 49 51 0 0 0
SMALL
GASTEIGER

@<TRIPOS>ATOM
      1  O1         1.2010   -0.3580   -0.7010 O.2     1  UNL1       -0.2687
      2  C1         1.2040   -0.0650    0.5230 C.2     1  UNL1        0.2602
      3  N1         2.4100    0.4100    1.0740 N.am    1  UNL1       -0.2301
      4  N2         3.5560    0.5350    0.2610 N.am    1  UNL1       -0.2300
      5  C2         4.8520    0.2490    0.7630 C.2     1  UNL1        0.2637
      6  O2         4.8970   -0.1150    1.9730 O.2     1  UNL1       -0.2685
      7  C3         6.0900    0.3380    0.0250 C.ar    1  UNL1        0.0795
      8  C4         6.1160    0.7170   -1.2920 C.ar    1  UNL1       -0.0460
      9  C5         7.3440    0.7770   -1.9550 C.ar    1  UNL1       -0.0608
     10  C6         8.5250    0.4760   -1.3520 C.ar    1  UNL1       -0.0583
     11  C7         8.5120    0.0900   -0.0170 C.ar    1  UNL1       -0.0194
     12  C8         7.2860    0.0330    0.6370 C.ar    1  UNL1        0.1290
     13  O3         7.2570   -0.3470    1.9640 O.3     1  UNL1       -0.5060
     14  C9        -0.0280   -0.2290    1.3110 C.ar    1  UNL1        0.0400
     15  C10       -0.0520    0.0810    2.6470 C.ar    1  UNL1       -0.0495
     16  C11       -1.2280   -0.1010    3.3700 C.ar    1  UNL1       -0.0592
     17  C12       -2.3590   -0.5870    2.7550 C.ar    1  UNL1       -0.0353
     18  C13       -2.3610   -0.9100    1.3910 C.ar    1  UNL1        0.1062
     19  S1        -3.8010   -1.5430    0.6320 S.O2    1  UNL1        0.0609
     20  O4        -3.3540   -2.2920   -0.6170 O.2     1  UNL1       -0.1528
     21  O5        -4.4840   -2.5460    1.5180 O.2     1  UNL1       -0.1528
     22  N3        -4.8450   -0.2970    0.1410 N.3     1  UNL1       -0.1766
     23  C14       -4.2710    0.5660   -0.8150 C.3     1  UNL1        0.0205
     24  C15       -5.2200    1.4240   -1.5980 C.3     1  UNL1       -0.0385
     25  C16       -6.4070    0.6630   -2.1280 C.3     1  UNL1       -0.0506
     26  C17       -6.5300   -0.7060   -1.5010 C.3     1  UNL1       -0.0385
     27  C18       -6.1980   -0.6930   -0.0370 C.3     1  UNL1        0.0205
     28  C19       -1.1840   -0.7180    0.7100 C.ar    1  UNL1       -0.0232
     29 H           2.4532    0.6548    2.0266 H       1  UNL1        0.1731
     30 H           3.4545    0.8266   -0.6738 H       1  UNL1        0.1731
     31 H           5.2417    0.9544   -1.7862 H       1  UNL1        0.0626
     32 H           7.3554    1.0625   -2.9467 H       1  UNL1        0.0618
     33 H           9.4128    0.5330   -1.8750 H       1  UNL1        0.0619
     34 H           9.3874   -0.1476    0.4751 H       1  UNL1        0.0654
     35 H           6.4402   -0.3911    2.4210 H       1  UNL1        0.2922
     36 H           0.7939    0.4458    3.1121 H       1  UNL1        0.0625
     37 H          -1.2516    0.1305    4.3754 H       1  UNL1        0.0618
     38 H          -3.2209   -0.7159    3.3077 H       1  UNL1        0.0637
     39 H          -3.7272   -0.0368   -1.5120 H       1  UNL1        0.0444
     40 H          -3.6688    1.2496   -0.2537 H       1  UNL1        0.0444
     41 H          -4.6911    1.8488   -2.4255 H       1  UNL1        0.0278
     42 H          -5.5938    2.1742   -0.9329 H       1  UNL1        0.0278
     43 H          -6.2994    0.5494   -3.1865 H       1  UNL1        0.0266
     44 H          -7.2893    1.2174   -1.8849 H       1  UNL1        0.0266
     45 H          -5.8601   -1.3747   -2.0000 H       1  UNL1        0.0278
     46 H          -7.5467   -1.0234   -1.6037 H       1  UNL1        0.0278
     47 H          -6.8406   -0.0023    0.4678 H       1  UNL1        0.0444
     48 H          -6.3377   -1.6735    0.3680 H       1  UNL1        0.0444
     49 H          -1.1554   -0.9474   -0.2958 H       1  UNL1        0.0644
@<TRIPOS>BOND
     1     1     2    2
     2     2     3   am
     3     2    14    1
     4     3     4    1
     5     4     5   am
     6     5     6    2
     7     5     7    1
     8     7     8   ar
     9     7    12   ar
    10     8     9   ar
    11     9    10   ar
    12    10    11   ar
    13    11    12   ar
    14    12    13    1
    15    14    15   ar
    16    14    28   ar
    17    15    16   ar
    18    16    17   ar
    19    17    18   ar
    20    18    19    1
    21    18    28   ar
    22    19    20    2
    23    19    21    2
    24    19    22    1
    25    22    23    1
    26    22    27    1
    27    23    24    1
    28    24    25    1
    29    25    26    1
    30    26    27    1
    31     3    29    1
    32     4    30    1
    33     8    31    1
    34     9    32    1
    35    10    33    1
    36    11    34    1
    37    13    35    1
    38    15    36    1
    39    16    37    1
    40    17    38    1
    41    23    39    1
    42    23    40    1
    43    24    41    1
    44    24    42    1
    45    25    43    1
    46    25    44    1
    47    26    45    1
    48    26    46    1
    49    27    47    1
    50    27    48    1
    51    28    49    1
@<TRIPOS>MOLECULE
../data/bude_mols_rdkit_confs2/molecule_99.pdb
 49 51 0 0 0
SMALL
GASTEIGER

@<TRIPOS>ATOM
      1  O1         2.0290   -2.0740   -0.2830 O.2     1  UNL1       -0.2687
      2  C1         1.2660   -1.1270    0.1050 C.2     1  UNL1        0.2602
      3  N1         1.7390    0.1680   -0.1200 N.am    1  UNL1       -0.2301
      4  N2         2.9950    0.4550   -0.7450 N.am    1  UNL1       -0.2300
      5  C2         4.1770    0.0630   -0.0890 C.2     1  UNL1        0.2637
      6  O2         4.0140   -0.5280    1.0340 O.2     1  UNL1       -0.2685
      7  C3         5.5220    0.2670   -0.5630 C.ar    1  UNL1        0.0795
      8  C4         6.5510   -0.2100    0.2580 C.ar    1  UNL1       -0.0460
      9  C5         7.8550   -0.0580   -0.1200 C.ar    1  UNL1       -0.0608
     10  C6         8.2310    0.5550   -1.2960 C.ar    1  UNL1       -0.0583
     11  C7         7.1940    1.0140   -2.0810 C.ar    1  UNL1       -0.0194
     12  C8         5.8730    0.8740   -1.7250 C.ar    1  UNL1        0.1290
     13  O3         4.9000    1.3670   -2.5770 O.3     1  UNL1       -0.5060
     14  C9         0.0130   -1.4900    0.7280 C.ar    1  UNL1        0.0400
     15  C10       -0.3200   -2.8110    0.9450 C.ar    1  UNL1       -0.0495
     16  C11       -1.5190   -3.1490    1.5400 C.ar    1  UNL1       -0.0592
     17  C12       -2.3960   -2.1240    1.9220 C.ar    1  UNL1       -0.0353
     18  C13       -2.0790   -0.8080    1.7130 C.ar    1  UNL1        0.1062
     19  S1        -3.1810    0.4410    2.1920 S.O2    1  UNL1        0.0609
     20  O4        -3.9070    0.1090    3.4560 O.2     1  UNL1       -0.1528
     21  O5        -2.3410    1.6790    2.4800 O.2     1  UNL1       -0.1528
     22  N3        -4.2210    0.7870    0.8960 N.3     1  UNL1       -0.1766
     23  C14       -3.5770    1.2680   -0.2740 C.3     1  UNL1        0.0205
     24  C15       -4.4990    1.1080   -1.4560 C.3     1  UNL1       -0.0385
     25  C16       -5.9180    1.4550   -1.1250 C.3     1  UNL1       -0.0506
     26  C17       -6.4300    0.4520   -0.1130 C.3     1  UNL1       -0.0385
     27  C18       -5.3000   -0.1120    0.6970 C.3     1  UNL1        0.0205
     28  C19       -0.8700   -0.4930    1.1140 C.ar    1  UNL1       -0.0232
     29 H           1.1782    0.9247    0.1668 H       1  UNL1        0.1731
     30 H           3.0310    0.9162   -1.6141 H       1  UNL1        0.1731
     31 H           6.3241   -0.6770    1.1499 H       1  UNL1        0.0626
     32 H           8.5932   -0.4191    0.5042 H       1  UNL1        0.0618
     33 H           9.2200    0.6630   -1.5701 H       1  UNL1        0.0619
     34 H           7.4188    1.4821   -2.9728 H       1  UNL1        0.0654
     35 H           3.9942    1.2817   -2.3530 H       1  UNL1        0.2922
     36 H           0.3350   -3.5555    0.6591 H       1  UNL1        0.0625
     37 H          -1.7653   -4.1382    1.7007 H       1  UNL1        0.0618
     38 H          -3.2950   -2.3650    2.3679 H       1  UNL1        0.0637
     39 H          -2.6801    0.7094   -0.4429 H       1  UNL1        0.0444
     40 H          -3.3341    2.3024   -0.1482 H       1  UNL1        0.0444
     41 H          -4.4620    0.0906   -1.7853 H       1  UNL1        0.0278
     42 H          -4.1688    1.7800   -2.2204 H       1  UNL1        0.0278
     43 H          -6.5167    1.4127   -2.0108 H       1  UNL1        0.0266
     44 H          -5.9706    2.4447   -0.7217 H       1  UNL1        0.0266
     45 H          -6.9242   -0.3450   -0.6282 H       1  UNL1        0.0278
     46 H          -7.1109    0.9478    0.5469 H       1  UNL1        0.0278
     47 H          -5.6826   -0.3942    1.6556 H       1  UNL1        0.0444
     48 H          -4.9106   -0.9418    0.1449 H       1  UNL1        0.0444
     49 H          -0.6236    0.4961    0.9531 H       1  UNL1        0.0644
@<TRIPOS>BOND
     1     1     2    2
     2     2     3   am
     3     2    14    1
     4     3     4    1
     5     4     5   am
     6     5     6    2
     7     5     7    1
     8     7     8   ar
     9     7    12   ar
    10     8     9   ar
    11     9    10   ar
    12    10    11   ar
    13    11    12   ar
    14    12    13    1
    15    14    15   ar
    16    14    28   ar
    17    15    16   ar
    18    16    17   ar
    19    17    18   ar
    20    18    19    1
    21    18    28   ar
    22    19    20    2
    23    19    21    2
    24    19    22    1
    25    22    23    1
    26    22    27    1
    27    23    24    1
    28    24    25    1
    29    25    26    1
    30    26    27    1
    31     3    29    1
    32     4    30    1
    33     8    31    1
    34     9    32    1
    35    10    33    1
    36    11    34    1
    37    13    35    1
    38    15    36    1
    39    16    37    1
    40    17    38    1
    41    23    39    1
    42    23    40    1
    43    24    41    1
    44    24    42    1
    45    25    43    1
    46    25    44    1
    47    26    45    1
    48    26    46    1
    49    27    47    1
    50    27    48    1
    51    28    49    1
@<TRIPOS>MOLECULE
../data/bude_mols_rdkit_confs2/molecule_99.pdb
 49 51 0 0 0
SMALL
GASTEIGER

@<TRIPOS>ATOM
      1  O1         1.5600    1.0980   -2.3440 O.2     1  UNL1       -0.2687
      2  C1         1.0210    0.3660   -1.4760 C.2     1  UNL1        0.2602
      3  N1         1.7090    0.0370   -0.2790 N.am    1  UNL1       -0.2301
      4  N2         3.0130    0.5270   -0.0370 N.am    1  UNL1       -0.2300
      5  C2         4.0640   -0.3790    0.1350 C.2     1  UNL1        0.2637
      6  O2         3.7480   -1.6220    0.0570 O.2     1  UNL1       -0.2685
      7  C3         5.4500   -0.0940    0.3880 C.ar    1  UNL1        0.0795
      8  C4         6.3670   -1.1390    0.5330 C.ar    1  UNL1       -0.0460
      9  C5         7.7020   -0.9290    0.7750 C.ar    1  UNL1       -0.0608
     10  C6         8.1740    0.3570    0.8810 C.ar    1  UNL1       -0.0583
     11  C7         7.3090    1.3870    0.7450 C.ar    1  UNL1       -0.0194
     12  C8         5.9490    1.1600    0.4980 C.ar    1  UNL1        0.1290
     13  O3         5.1690    2.2810    0.3790 O.3     1  UNL1       -0.5060
     14  C9        -0.3200   -0.1260   -1.7470 C.ar    1  UNL1        0.0400
     15  C10       -0.9320    0.1150   -2.9730 C.ar    1  UNL1       -0.0495
     16  C11       -2.1940   -0.3150   -3.3010 C.ar    1  UNL1       -0.0592
     17  C12       -2.9080   -1.0300   -2.3670 C.ar    1  UNL1       -0.0353
     18  C13       -2.3460   -1.2970   -1.1340 C.ar    1  UNL1        0.1062
     19  S1        -3.2680   -2.2200    0.0650 S.O2    1  UNL1        0.0609
     20  O4        -4.2270   -3.1130   -0.6980 O.2     1  UNL1       -0.1528
     21  O5        -2.3850   -3.0710    0.8930 O.2     1  UNL1       -0.1528
     22  N3        -4.2340   -1.1490    1.0130 N.3     1  UNL1       -0.1766
     23  C14       -5.1840   -0.4560    0.1580 C.3     1  UNL1        0.0205
     24  C15       -6.0370    0.5110    0.9580 C.3     1  UNL1       -0.0385
     25  C16       -5.1770    1.4940    1.7230 C.3     1  UNL1       -0.0506
     26  C17       -3.7220    1.1790    1.4220 C.3     1  UNL1       -0.0385
     27  C18       -3.4520   -0.2400    1.8090 C.3     1  UNL1        0.0205
     28  C19       -1.0740   -0.8460   -0.8440 C.ar    1  UNL1       -0.0232
     29 H           1.2734   -0.5388    0.3903 H       1  UNL1        0.1731
     30 H           3.1793    1.4962    0.0099 H       1  UNL1        0.1731
     31 H           6.0259   -2.1099    0.4548 H       1  UNL1        0.0626
     32 H           8.3451   -1.7297    0.8764 H       1  UNL1        0.0618
     33 H           9.1745    0.5341    1.0618 H       1  UNL1        0.0619
     34 H           7.6561    2.3556    0.8244 H       1  UNL1        0.0654
     35 H           4.2505    2.1973    0.2135 H       1  UNL1        0.2922
     36 H          -0.4044    0.6505   -3.6801 H       1  UNL1        0.0625
     37 H          -2.5981   -0.1066   -4.2274 H       1  UNL1        0.0618
     38 H          -3.8590   -1.3652   -2.5868 H       1  UNL1        0.0637
     39 H          -5.8204   -1.1762   -0.3124 H       1  UNL1        0.0444
     40 H          -4.6378    0.1000   -0.5751 H       1  UNL1        0.0444
     41 H          -6.6356   -0.0424    1.6511 H       1  UNL1        0.0278
     42 H          -6.6563    1.0589    0.2789 H       1  UNL1        0.0278
     43 H          -5.3600    1.3961    2.7727 H       1  UNL1        0.0266
     44 H          -5.4084    2.4967    1.4297 H       1  UNL1        0.0266
     45 H          -3.0879    1.8328    1.9835 H       1  UNL1        0.0278
     46 H          -3.5258    1.3176    0.3793 H       1  UNL1        0.0278
     47 H          -2.4133   -0.4511    1.6625 H       1  UNL1        0.0444
     48 H          -3.7194   -0.3700    2.8369 H       1  UNL1        0.0444
     49 H          -0.6722   -1.0554    0.0832 H       1  UNL1        0.0644
@<TRIPOS>BOND
     1     1     2    2
     2     2     3   am
     3     2    14    1
     4     3     4    1
     5     4     5   am
     6     5     6    2
     7     5     7    1
     8     7     8   ar
     9     7    12   ar
    10     8     9   ar
    11     9    10   ar
    12    10    11   ar
    13    11    12   ar
    14    12    13    1
    15    14    15   ar
    16    14    28   ar
    17    15    16   ar
    18    16    17   ar
    19    17    18   ar
    20    18    19    1
    21    18    28   ar
    22    19    20    2
    23    19    21    2
    24    19    22    1
    25    22    23    1
    26    22    27    1
    27    23    24    1
    28    24    25    1
    29    25    26    1
    30    26    27    1
    31     3    29    1
    32     4    30    1
    33     8    31    1
    34     9    32    1
    35    10    33    1
    36    11    34    1
    37    13    35    1
    38    15    36    1
    39    16    37    1
    40    17    38    1
    41    23    39    1
    42    23    40    1
    43    24    41    1
    44    24    42    1
    45    25    43    1
    46    25    44    1
    47    26    45    1
    48    26    46    1
    49    27    47    1
    50    27    48    1
    51    28    49    1
@<TRIPOS>MOLECULE
../data/bude_mols_rdkit_confs2/molecule_99.pdb
 49 51 0 0 0
SMALL
GASTEIGER

@<TRIPOS>ATOM
      1  O1         2.3620    2.0240   -0.0990 O.2     1  UNL1       -0.2687
      2  C1         1.5670    1.0200   -0.0480 C.2     1  UNL1        0.2602
      3  N1         2.1320   -0.2300   -0.3320 N.am    1  UNL1       -0.2301
      4  N2         3.5150   -0.3230   -0.6580 N.am    1  UNL1       -0.2300
      5  C2         4.4040   -0.9300    0.2280 C.2     1  UNL1        0.2637
      6  O2         3.9050   -1.3950    1.3140 O.2     1  UNL1       -0.2685
      7  C3         5.8250   -1.0630    0.0050 C.ar    1  UNL1        0.0795
      8  C4         6.5610   -1.6710    1.0270 C.ar    1  UNL1       -0.0460
      9  C5         7.9040   -1.8330    0.9510 C.ar    1  UNL1       -0.0608
     10  C6         8.5990   -1.3990   -0.1510 C.ar    1  UNL1       -0.0583
     11  C7         7.9300   -0.8040   -1.1670 C.ar    1  UNL1       -0.0194
     12  C8         6.5190   -0.6280   -1.1000 C.ar    1  UNL1        0.1290
     13  O3         5.9580   -0.0430   -2.1400 O.3     1  UNL1       -0.5060
     14  C9         0.1800    1.2890    0.2950 C.ar    1  UNL1        0.0400
     15  C10       -0.1500    1.8040    1.5500 C.ar    1  UNL1       -0.0495
     16  C11       -1.4550    2.1050    1.8680 C.ar    1  UNL1       -0.0592
     17  C12       -2.5020    1.9260    0.9920 C.ar    1  UNL1       -0.0353
     18  C13       -2.1770    1.4150   -0.2560 C.ar    1  UNL1        0.1062
     19  S1        -3.4960    1.2390   -1.4010 S.O2    1  UNL1        0.0609
     20  O4        -4.1010    2.6270   -1.5430 O.2     1  UNL1       -0.1528
     21  O5        -2.9310    0.8810   -2.7450 O.2     1  UNL1       -0.1528
     22  N3        -4.6670    0.1560   -0.9810 N.3     1  UNL1       -0.1766
     23  C14       -4.4060   -1.1970   -0.7950 C.3     1  UNL1        0.0205
     24  C15       -5.2000   -1.6890    0.4060 C.3     1  UNL1       -0.0385
     25  C16       -5.5420   -0.5330    1.3560 C.3     1  UNL1       -0.0506
     26  C17       -6.3540    0.5390    0.6670 C.3     1  UNL1       -0.0385
     27  C18       -5.9910    0.6150   -0.7880 C.3     1  UNL1        0.0205
     28  C19       -0.8790    1.1150   -0.5680 C.ar    1  UNL1       -0.0232
     29 H           1.5749   -1.0413   -0.3063 H       1  UNL1        0.1731
     30 H           3.8442    0.0422   -1.5110 H       1  UNL1        0.1731
     31 H           6.0647   -2.0074    1.8669 H       1  UNL1        0.0626
     32 H           8.4092   -2.2866    1.7282 H       1  UNL1        0.0618
     33 H           9.6219   -1.5251   -0.2044 H       1  UNL1        0.0619
     34 H           8.4476   -0.4753   -1.9971 H       1  UNL1        0.0654
     35 H           5.0321    0.1004   -2.1539 H       1  UNL1        0.2922
     36 H           0.5938    1.9610    2.2480 H       1  UNL1        0.0625
     37 H          -1.6581    2.4824    2.8068 H       1  UNL1        0.0618
     38 H          -3.4739    2.1589    1.2494 H       1  UNL1        0.0637
     39 H          -3.3605   -1.3406   -0.6182 H       1  UNL1        0.0444
     40 H          -4.6907   -1.7456   -1.6685 H       1  UNL1        0.0444
     41 H          -4.6189   -2.4153    0.9349 H       1  UNL1        0.0278
     42 H          -6.1138   -2.1206    0.0545 H       1  UNL1        0.0278
     43 H          -4.6322   -0.1003    1.7163 H       1  UNL1        0.0266
     44 H          -6.1265   -0.9265    2.1613 H       1  UNL1        0.0266
     45 H          -6.1563    1.4833    1.1297 H       1  UNL1        0.0278
     46 H          -7.3928    0.2979    0.7539 H       1  UNL1        0.0278
     47 H          -6.6636    0.0044   -1.3534 H       1  UNL1        0.0444
     48 H          -6.0615    1.6314   -1.1149 H       1  UNL1        0.0444
     49 H          -0.6816    0.7353   -1.5071 H       1  UNL1        0.0644
@<TRIPOS>BOND
     1     1     2    2
     2     2     3   am
     3     2    14    1
     4     3     4    1
     5     4     5   am
     6     5     6    2
     7     5     7    1
     8     7     8   ar
     9     7    12   ar
    10     8     9   ar
    11     9    10   ar
    12    10    11   ar
    13    11    12   ar
    14    12    13    1
    15    14    15   ar
    16    14    28   ar
    17    15    16   ar
    18    16    17   ar
    19    17    18   ar
    20    18    19    1
    21    18    28   ar
    22    19    20    2
    23    19    21    2
    24    19    22    1
    25    22    23    1
    26    22    27    1
    27    23    24    1
    28    24    25    1
    29    25    26    1
    30    26    27    1
    31     3    29    1
    32     4    30    1
    33     8    31    1
    34     9    32    1
    35    10    33    1
    36    11    34    1
    37    13    35    1
    38    15    36    1
    39    16    37    1
    40    17    38    1
    41    23    39    1
    42    23    40    1
    43    24    41    1
    44    24    42    1
    45    25    43    1
    46    25    44    1
    47    26    45    1
    48    26    46    1
    49    27    47    1
    50    27    48    1
    51    28    49    1
@<TRIPOS>MOLECULE
../data/bude_mols_rdkit_confs2/molecule_99.pdb
 49 51 0 0 0
SMALL
GASTEIGER

@<TRIPOS>ATOM
      1  O1         2.2630   -2.8110    0.9370 O.2     1  UNL1       -0.2687
      2  C1         1.5640   -1.9870    0.2950 C.2     1  UNL1        0.2602
      3  N1         2.2570   -0.9160   -0.2970 N.am    1  UNL1       -0.2301
      4  N2         3.6550   -0.7290   -0.2050 N.am    1  UNL1       -0.2300
      5  C2         4.2320    0.5720   -0.0660 C.2     1  UNL1        0.2637
      6  O2         3.3700    1.4940   -0.0370 O.2     1  UNL1       -0.2685
      7  C3         5.6780    0.8050    0.0330 C.ar    1  UNL1        0.0795
      8  C4         6.5540   -0.2570   -0.0040 C.ar    1  UNL1       -0.0460
      9  C5         7.9120   -0.1210    0.0840 C.ar    1  UNL1       -0.0608
     10  C6         8.4110    1.1520    0.2160 C.ar    1  UNL1       -0.0583
     11  C7         7.5810    2.2370    0.2570 C.ar    1  UNL1       -0.0194
     12  C8         6.1970    2.0610    0.1650 C.ar    1  UNL1        0.1290
     13  O3         5.4260    3.1680    0.2110 O.3     1  UNL1       -0.5060
     14  C9         0.1270   -2.1950    0.2130 C.ar    1  UNL1        0.0400
     15  C10       -0.4340   -3.2790    0.8540 C.ar    1  UNL1       -0.0495
     16  C11       -1.7960   -3.5480    0.8250 C.ar    1  UNL1       -0.0592
     17  C12       -2.5870   -2.6750    0.1190 C.ar    1  UNL1       -0.0353
     18  C13       -2.0700   -1.5770   -0.5380 C.ar    1  UNL1        0.1062
     19  S1        -3.1140   -0.4710   -1.4410 S.O2    1  UNL1        0.0609
     20  O4        -4.2550   -1.3060   -1.9790 O.2     1  UNL1       -0.1528
     21  O5        -2.3830    0.0520   -2.6490 O.2     1  UNL1       -0.1528
     22  N3        -3.6780    0.8020   -0.4220 N.3     1  UNL1       -0.1766
     23  C14       -4.4490    0.2380    0.6380 C.3     1  UNL1        0.0205
     24  C15       -5.5970    1.1100    1.0720 C.3     1  UNL1       -0.0385
     25  C16       -6.4630    1.6010   -0.0390 C.3     1  UNL1       -0.0506
     26  C17       -5.7820    1.4250   -1.3750 C.3     1  UNL1       -0.0385
     27  C18       -4.3310    1.7940   -1.2120 C.3     1  UNL1        0.0205
     28  C19       -0.7110   -1.3500   -0.4810 C.ar    1  UNL1       -0.0232
     29 H           1.7357   -0.2550   -0.8075 H       1  UNL1        0.1731
     30 H           4.2470   -1.5150   -0.2375 H       1  UNL1        0.1731
     31 H           6.1644   -1.2074   -0.1036 H       1  UNL1        0.0626
     32 H           8.5368   -0.9418    0.0525 H       1  UNL1        0.0618
     33 H           9.4312    1.2916    0.2855 H       1  UNL1        0.0619
     34 H           7.9755    3.1855    0.3558 H       1  UNL1        0.0654
     35 H           4.4939    3.0925    0.1525 H       1  UNL1        0.2922
     36 H           0.1847   -3.9178    1.3777 H       1  UNL1        0.0625
     37 H          -2.1953   -4.3659    1.3114 H       1  UNL1        0.0618
     38 H          -3.6039   -2.8461    0.0784 H       1  UNL1        0.0637
     39 H          -3.8059    0.0807    1.4786 H       1  UNL1        0.0444
     40 H          -4.8676   -0.6763    0.2722 H       1  UNL1        0.0444
     41 H          -5.1950    1.9605    1.5818 H       1  UNL1        0.0278
     42 H          -6.2199    0.5014    1.6937 H       1  UNL1        0.0278
     43 H          -6.6719    2.6393    0.1130 H       1  UNL1        0.0266
     44 H          -7.3694    1.0324   -0.0412 H       1  UNL1        0.0266
     45 H          -6.2392    2.0631   -2.1021 H       1  UNL1        0.0278
     46 H          -5.8721    0.4117   -1.7067 H       1  UNL1        0.0278
     47 H          -3.8657    1.8480   -2.1740 H       1  UNL1        0.0444
     48 H          -4.2553    2.7450   -0.7274 H       1  UNL1        0.0444
     49 H          -0.3140   -0.5312   -0.9677 H       1  UNL1        0.0644
@<TRIPOS>BOND
     1     1     2    2
     2     2     3   am
     3     2    14    1
     4     3     4    1
     5     4     5   am
     6     5     6    2
     7     5     7    1
     8     7     8   ar
     9     7    12   ar
    10     8     9   ar
    11     9    10   ar
    12    10    11   ar
    13    11    12   ar
    14    12    13    1
    15    14    15   ar
    16    14    28   ar
    17    15    16   ar
    18    16    17   ar
    19    17    18   ar
    20    18    19    1
    21    18    28   ar
    22    19    20    2
    23    19    21    2
    24    19    22    1
    25    22    23    1
    26    22    27    1
    27    23    24    1
    28    24    25    1
    29    25    26    1
    30    26    27    1
    31     3    29    1
    32     4    30    1
    33     8    31    1
    34     9    32    1
    35    10    33    1
    36    11    34    1
    37    13    35    1
    38    15    36    1
    39    16    37    1
    40    17    38    1
    41    23    39    1
    42    23    40    1
    43    24    41    1
    44    24    42    1
    45    25    43    1
    46    25    44    1
    47    26    45    1
    48    26    46    1
    49    27    47    1
    50    27    48    1
    51    28    49    1
@<TRIPOS>MOLECULE
../data/bude_mols_rdkit_confs2/molecule_99.pdb
 49 51 0 0 0
SMALL
GASTEIGER

@<TRIPOS>ATOM
      1  O1        -1.8110    0.4200   -0.5550 O.2     1  UNL1       -0.2687
      2  C1        -1.5840   -0.2810    0.4650 C.2     1  UNL1        0.2602
      3  N1        -2.6770   -0.5550    1.3230 N.am    1  UNL1       -0.2301
      4  N2        -3.9900   -0.0860    1.0880 N.am    1  UNL1       -0.2300
      5  C2        -4.7000   -0.4010   -0.0730 C.2     1  UNL1        0.2637
      6  O2        -4.0820   -1.1400   -0.9070 O.2     1  UNL1       -0.2685
      7  C3        -6.0340    0.0510   -0.3540 C.ar    1  UNL1        0.0795
      8  C4        -6.6120   -0.3550   -1.5680 C.ar    1  UNL1       -0.0460
      9  C5        -7.8770    0.0090   -1.9510 C.ar    1  UNL1       -0.0608
     10  C6        -8.6390    0.8090   -1.1270 C.ar    1  UNL1       -0.0583
     11  C7        -8.1040    1.2240    0.0680 C.ar    1  UNL1       -0.0194
     12  C8        -6.8140    0.8410    0.4380 C.ar    1  UNL1        0.1290
     13  O3        -6.3560    1.2980    1.6440 O.3     1  UNL1       -0.5060
     14  C9        -0.2210   -0.7780    0.7210 C.ar    1  UNL1        0.0400
     15  C10        0.0970   -1.4380    1.8850 C.ar    1  UNL1       -0.0495
     16  C11        1.3910   -1.8820    2.0500 C.ar    1  UNL1       -0.0592
     17  C12        2.3710   -1.6880    1.0940 C.ar    1  UNL1       -0.0353
     18  C13        2.0400   -1.0200   -0.0790 C.ar    1  UNL1        0.1062
     19  S1         3.2880   -0.7900   -1.2790 S.O2    1  UNL1        0.0609
     20  O4         4.2670   -1.9270   -1.2120 O.2     1  UNL1       -0.1528
     21  O5         2.6800   -0.7480   -2.6510 O.2     1  UNL1       -0.1528
     22  N3         4.1640    0.6710   -0.9860 N.3     1  UNL1       -0.1766
     23  C14        4.8290    0.6630    0.2790 C.3     1  UNL1        0.0205
     24  C15        6.1310   -0.0720    0.3090 C.3     1  UNL1       -0.0385
     25  C16        7.0980    0.6280   -0.6160 C.3     1  UNL1       -0.0506
     26  C17        6.3910    1.5180   -1.5980 C.3     1  UNL1       -0.0385
     27  C18        5.0870    0.9400   -2.0670 C.3     1  UNL1        0.0205
     28  C19        0.7490   -0.5770   -0.2430 C.ar    1  UNL1       -0.0232
     29 H          -2.5139   -1.1011    2.1258 H       1  UNL1        0.1731
     30 H          -4.4193    0.4831    1.7671 H       1  UNL1        0.1731
     31 H          -6.0593   -0.9546   -2.2005 H       1  UNL1        0.0626
     32 H          -8.2577   -0.3151   -2.8538 H       1  UNL1        0.0618
     33 H          -9.5928    1.0907   -1.4025 H       1  UNL1        0.0619
     34 H          -8.6603    1.8237    0.6972 H       1  UNL1        0.0654
     35 H          -5.4960    1.0678    1.9363 H       1  UNL1        0.2922
     36 H          -0.6146   -1.5965    2.6154 H       1  UNL1        0.0625
     37 H           1.6382   -2.3783    2.9204 H       1  UNL1        0.0618
     38 H           3.3312   -2.0331    1.2487 H       1  UNL1        0.0637
     39 H           4.1755    0.2080    0.9937 H       1  UNL1        0.0444
     40 H           5.0593    1.6843    0.5000 H       1  UNL1        0.0444
     41 H           5.9840   -1.0801   -0.0183 H       1  UNL1        0.0278
     42 H           6.5213   -0.0857    1.3052 H       1  UNL1        0.0278
     43 H           7.6548   -0.1090   -1.1561 H       1  UNL1        0.0266
     44 H           7.7429    1.2393   -0.0198 H       1  UNL1        0.0266
     45 H           7.0260    1.6641   -2.4467 H       1  UNL1        0.0278
     46 H           6.1762    2.4414   -1.1019 H       1  UNL1        0.0278
     47 H           4.6295    1.6341   -2.7406 H       1  UNL1        0.0444
     48 H           5.3043    0.0056   -2.5410 H       1  UNL1        0.0444
     49 H           0.4966   -0.0798   -1.1114 H       1  UNL1        0.0644
@<TRIPOS>BOND
     1     1     2    2
     2     2     3   am
     3     2    14    1
     4     3     4    1
     5     4     5   am
     6     5     6    2
     7     5     7    1
     8     7     8   ar
     9     7    12   ar
    10     8     9   ar
    11     9    10   ar
    12    10    11   ar
    13    11    12   ar
    14    12    13    1
    15    14    15   ar
    16    14    28   ar
    17    15    16   ar
    18    16    17   ar
    19    17    18   ar
    20    18    19    1
    21    18    28   ar
    22    19    20    2
    23    19    21    2
    24    19    22    1
    25    22    23    1
    26    22    27    1
    27    23    24    1
    28    24    25    1
    29    25    26    1
    30    26    27    1
    31     3    29    1
    32     4    30    1
    33     8    31    1
    34     9    32    1
    35    10    33    1
    36    11    34    1
    37    13    35    1
    38    15    36    1
    39    16    37    1
    40    17    38    1
    41    23    39    1
    42    23    40    1
    43    24    41    1
    44    24    42    1
    45    25    43    1
    46    25    44    1
    47    26    45    1
    48    26    46    1
    49    27    47    1
    50    27    48    1
    51    28    49    1
@<TRIPOS>MOLECULE
../data/bude_mols_rdkit_confs2/molecule_99.pdb
 49 51 0 0 0
SMALL
GASTEIGER

@<TRIPOS>ATOM
      1  O1         1.8220   -0.4190   -0.1970 O.2     1  UNL1       -0.2687
      2  C1         1.5360    0.4790    0.6490 C.2     1  UNL1        0.2602
      3  N1         2.5370    0.9080    1.5370 N.am    1  UNL1       -0.2301
      4  N2         3.8530    0.3760    1.5230 N.am    1  UNL1       -0.2300
      5  C2         4.6740    0.4710    0.3840 C.2     1  UNL1        0.2637
      6  O2         4.1440    1.0690   -0.6280 O.2     1  UNL1       -0.2685
      7  C3         6.0240   -0.0120    0.2010 C.ar    1  UNL1        0.0795
      8  C4         6.6710    0.1910   -1.0350 C.ar    1  UNL1       -0.0460
      9  C5         7.9490   -0.2660   -1.2090 C.ar    1  UNL1       -0.0608
     10  C6         8.6480   -0.9260   -0.2170 C.ar    1  UNL1       -0.0583
     11  C7         8.0290   -1.1230    0.9730 C.ar    1  UNL1       -0.0194
     12  C8         6.7410   -0.6670    1.1590 C.ar    1  UNL1        0.1290
     13  O3         6.1950   -0.9130    2.4030 O.3     1  UNL1       -0.5060
     14  C9         0.1890    1.0370    0.6780 C.ar    1  UNL1        0.0400
     15  C10       -0.2060    2.0200    1.5520 C.ar    1  UNL1       -0.0495
     16  C11       -1.4930    2.5310    1.5570 C.ar    1  UNL1       -0.0592
     17  C12       -2.4100    2.0380    0.6560 C.ar    1  UNL1       -0.0353
     18  C13       -2.0710    1.0510   -0.2450 C.ar    1  UNL1        0.1062
     19  S1        -3.2590    0.4420   -1.3810 S.O2    1  UNL1        0.0609
     20  O4        -2.6450    0.0960   -2.6870 O.2     1  UNL1       -0.1528
     21  O5        -4.2650    1.5480   -1.6340 O.2     1  UNL1       -0.1528
     22  N3        -4.1190   -0.8940   -0.7420 N.3     1  UNL1       -0.1766
     23  C14       -4.8680   -0.5970    0.4380 C.3     1  UNL1        0.0205
     24  C15       -6.3510   -0.8290    0.2870 C.3     1  UNL1       -0.0385
     25  C16       -6.8970   -0.3670   -1.0250 C.3     1  UNL1       -0.0506
     26  C17       -6.0710   -0.7580   -2.2060 C.3     1  UNL1       -0.0385
     27  C18       -4.8810   -1.5550   -1.7570 C.3     1  UNL1        0.0205
     28  C19       -0.7860    0.5770   -0.2130 C.ar    1  UNL1       -0.0232
     29 H           2.3167    1.6058    2.1956 H       1  UNL1        0.1731
     30 H           4.1996   -0.0700    2.3293 H       1  UNL1        0.1731
     31 H           6.1846    0.6804   -1.8025 H       1  UNL1        0.0626
     32 H           8.4099   -0.1111   -2.1193 H       1  UNL1        0.0618
     33 H           9.6117   -1.2589   -0.3768 H       1  UNL1        0.0619
     34 H           8.5202   -1.6127    1.7372 H       1  UNL1        0.0654
     35 H           5.3230   -0.6297    2.5963 H       1  UNL1        0.2922
     36 H           0.4799    2.3905    2.2282 H       1  UNL1        0.0625
     37 H          -1.7607    3.2700    2.2258 H       1  UNL1        0.0618
     38 H          -3.3707    2.4150    0.6551 H       1  UNL1        0.0637
     39 H          -4.7104    0.4312    0.6888 H       1  UNL1        0.0444
     40 H          -4.5232   -1.2603    1.2035 H       1  UNL1        0.0444
     41 H          -6.8573   -0.3023    1.0687 H       1  UNL1        0.0278
     42 H          -6.5108   -1.8857    0.3394 H       1  UNL1        0.0278
     43 H          -6.9652    0.7006   -1.0024 H       1  UNL1        0.0266
     44 H          -7.8482   -0.8419   -1.1455 H       1  UNL1        0.0266
     45 H          -5.7369    0.1233   -2.7125 H       1  UNL1        0.0278
     46 H          -6.6638   -1.3536   -2.8683 H       1  UNL1        0.0278
     47 H          -5.2237   -2.4922   -1.3708 H       1  UNL1        0.0444
     48 H          -4.2420   -1.6838   -2.6056 H       1  UNL1        0.0444
     49 H          -0.5226   -0.1612   -0.8843 H       1  UNL1        0.0644
@<TRIPOS>BOND
     1     1     2    2
     2     2     3   am
     3     2    14    1
     4     3     4    1
     5     4     5   am
     6     5     6    2
     7     5     7    1
     8     7     8   ar
     9     7    12   ar
    10     8     9   ar
    11     9    10   ar
    12    10    11   ar
    13    11    12   ar
    14    12    13    1
    15    14    15   ar
    16    14    28   ar
    17    15    16   ar
    18    16    17   ar
    19    17    18   ar
    20    18    19    1
    21    18    28   ar
    22    19    20    2
    23    19    21    2
    24    19    22    1
    25    22    23    1
    26    22    27    1
    27    23    24    1
    28    24    25    1
    29    25    26    1
    30    26    27    1
    31     3    29    1
    32     4    30    1
    33     8    31    1
    34     9    32    1
    35    10    33    1
    36    11    34    1
    37    13    35    1
    38    15    36    1
    39    16    37    1
    40    17    38    1
    41    23    39    1
    42    23    40    1
    43    24    41    1
    44    24    42    1
    45    25    43    1
    46    25    44    1
    47    26    45    1
    48    26    46    1
    49    27    47    1
    50    27    48    1
    51    28    49    1
@<TRIPOS>MOLECULE
../data/bude_mols_rdkit_confs2/molecule_99.pdb
 49 51 0 0 0
SMALL
GASTEIGER

@<TRIPOS>ATOM
      1  O1         1.9730    1.6800    0.5840 O.2     1  UNL1       -0.2687
      2  C1         1.6240    0.4730    0.4700 C.2     1  UNL1        0.2602
      3  N1         2.6390   -0.4770    0.2160 N.am    1  UNL1       -0.2301
      4  N2         3.9950   -0.0750    0.1330 N.am    1  UNL1       -0.2300
      5  C2         4.9930   -1.0140   -0.2310 C.2     1  UNL1        0.2637
      6  O2         4.6190   -2.2190   -0.5020 O.2     1  UNL1       -0.2685
      7  C3         6.4060   -0.7320   -0.3190 C.ar    1  UNL1        0.0795
      8  C4         7.2610   -1.7880   -0.6460 C.ar    1  UNL1       -0.0460
      9  C5         8.6150   -1.5520   -0.6910 C.ar    1  UNL1       -0.0608
     10  C6         9.1480   -0.3070   -0.4210 C.ar    1  UNL1       -0.0583
     11  C7         8.2760    0.7010   -0.1040 C.ar    1  UNL1       -0.0194
     12  C8         6.8980    0.5130   -0.0480 C.ar    1  UNL1        0.1290
     13  O3         6.1500    1.6070    0.2750 O.3     1  UNL1       -0.5060
     14  C9         0.2330    0.0630    0.6030 C.ar    1  UNL1        0.0400
     15  C10       -0.0610   -1.2510    0.8830 C.ar    1  UNL1       -0.0495
     16  C11       -1.3570   -1.7070    1.0800 C.ar    1  UNL1       -0.0592
     17  C12       -2.3740   -0.7990    0.9880 C.ar    1  UNL1       -0.0353
     18  C13       -2.1600    0.5390    0.7090 C.ar    1  UNL1        0.1062
     19  S1        -3.4820    1.7090    0.6630 S.O2    1  UNL1        0.0609
     20  O4        -3.1350    2.8160   -0.3340 O.2     1  UNL1       -0.1528
     21  O5        -3.6280    2.2960    2.0560 O.2     1  UNL1       -0.1528
     22  N3        -4.8660    0.9450    0.0940 N.3     1  UNL1       -0.1766
     23  C14       -5.9570    0.8050    0.9930 C.3     1  UNL1        0.0205
     24  C15       -7.1920    0.4170    0.2110 C.3     1  UNL1       -0.0385
     25  C16       -6.9070   -0.6630   -0.8080 C.3     1  UNL1       -0.0506
     26  C17       -5.6910   -0.4030   -1.6520 C.3     1  UNL1       -0.0385
     27  C18       -5.1670    0.9950   -1.2820 C.3     1  UNL1        0.0205
     28  C19       -0.8310    0.9400    0.5180 C.ar    1  UNL1       -0.0232
     29 H           2.4021   -1.4250    0.0959 H       1  UNL1        0.1731
     30 H           4.2445    0.8571    0.3282 H       1  UNL1        0.1731
     31 H           6.8836   -2.7267   -0.8497 H       1  UNL1        0.0626
     32 H           9.2511   -2.3276   -0.9335 H       1  UNL1        0.0618
     33 H          10.1661   -0.1419   -0.4567 H       1  UNL1        0.0619
     34 H           8.6564    1.6380    0.1017 H       1  UNL1        0.0654
     35 H           5.2170    1.5378    0.3271 H       1  UNL1        0.2922
     36 H           0.7157   -1.9273    0.9495 H       1  UNL1        0.0625
     37 H          -1.5464   -2.6997    1.2892 H       1  UNL1        0.0618
     38 H          -3.3424   -1.1251    1.1327 H       1  UNL1        0.0637
     39 H          -6.1282    1.7333    1.4968 H       1  UNL1        0.0444
     40 H          -5.7347    0.0488    1.7166 H       1  UNL1        0.0444
     41 H          -7.5633    1.2818   -0.2981 H       1  UNL1        0.0278
     42 H          -7.9121    0.0335    0.9033 H       1  UNL1        0.0278
     43 H          -7.7545   -0.7461   -1.4559 H       1  UNL1        0.0266
     44 H          -6.7166   -1.5623   -0.2603 H       1  UNL1        0.0266
     45 H          -5.9520   -0.4334   -2.6892 H       1  UNL1        0.0278
     46 H          -4.9421   -1.1467   -1.4762 H       1  UNL1        0.0278
     47 H          -4.2876    1.2240   -1.8469 H       1  UNL1        0.0444
     48 H          -5.8893    1.7543   -1.4980 H       1  UNL1        0.0444
     49 H          -0.6391    1.9314    0.3050 H       1  UNL1        0.0644
@<TRIPOS>BOND
     1     1     2    2
     2     2     3   am
     3     2    14    1
     4     3     4    1
     5     4     5   am
     6     5     6    2
     7     5     7    1
     8     7     8   ar
     9     7    12   ar
    10     8     9   ar
    11     9    10   ar
    12    10    11   ar
    13    11    12   ar
    14    12    13    1
    15    14    15   ar
    16    14    28   ar
    17    15    16   ar
    18    16    17   ar
    19    17    18   ar
    20    18    19    1
    21    18    28   ar
    22    19    20    2
    23    19    21    2
    24    19    22    1
    25    22    23    1
    26    22    27    1
    27    23    24    1
    28    24    25    1
    29    25    26    1
    30    26    27    1
    31     3    29    1
    32     4    30    1
    33     8    31    1
    34     9    32    1
    35    10    33    1
    36    11    34    1
    37    13    35    1
    38    15    36    1
    39    16    37    1
    40    17    38    1
    41    23    39    1
    42    23    40    1
    43    24    41    1
    44    24    42    1
    45    25    43    1
    46    25    44    1
    47    26    45    1
    48    26    46    1
    49    27    47    1
    50    27    48    1
    51    28    49    1
@<TRIPOS>MOLECULE
../data/bude_mols_rdkit_confs2/molecule_99.pdb
 49 51 0 0 0
SMALL
GASTEIGER

@<TRIPOS>ATOM
      1  O1        -2.6650    0.6140    1.9250 O.2     1  UNL1       -0.2687
      2  C1        -1.7860    0.5350    1.0000 C.2     1  UNL1        0.2602
      3  N1        -2.2460    0.6820   -0.3300 N.am    1  UNL1       -0.2301
      4  N2        -3.6260    0.8900   -0.5290 N.am    1  UNL1       -0.2300
      5  C2        -4.5890   -0.1000   -0.2700 C.2     1  UNL1        0.2637
      6  O2        -4.1100   -1.2040    0.1590 O.2     1  UNL1       -0.2685
      7  C3        -6.0210   -0.0100   -0.4340 C.ar    1  UNL1        0.0795
      8  C4        -6.7950   -1.1330   -0.1380 C.ar    1  UNL1       -0.0460
      9  C5        -8.1600   -1.1630   -0.2730 C.ar    1  UNL1       -0.0608
     10  C6        -8.8450   -0.0470   -0.7220 C.ar    1  UNL1       -0.0583
     11  C7        -8.1010    1.0610   -1.0150 C.ar    1  UNL1       -0.0194
     12  C8        -6.7000    1.0880   -0.8750 C.ar    1  UNL1        0.1290
     13  O3        -6.0140    2.2360   -1.1870 O.3     1  UNL1       -0.5060
     14  C9        -0.3870    0.3040    1.3560 C.ar    1  UNL1        0.0400
     15  C10       -0.0260    0.4690    2.6820 C.ar    1  UNL1       -0.0495
     16  C11        1.2720    0.2370    3.0980 C.ar    1  UNL1       -0.0592
     17  C12        2.2140   -0.1680    2.1540 C.ar    1  UNL1       -0.0353
     18  C13        1.8850   -0.3420    0.8110 C.ar    1  UNL1        0.1062
     19  S1         3.0700   -0.9010   -0.3010 S.O2    1  UNL1        0.0609
     20  O4         2.4300   -1.3850   -1.5940 O.2     1  UNL1       -0.1528
     21  O5         3.8030   -2.1090    0.2480 O.2     1  UNL1       -0.1528
     22  N3         4.2540    0.2520   -0.7450 N.3     1  UNL1       -0.1766
     23  C14        5.0540    0.7220    0.3620 C.3     1  UNL1        0.0205
     24  C15        6.4510    1.1350   -0.0780 C.3     1  UNL1       -0.0385
     25  C16        7.2610   -0.0130   -0.6240 C.3     1  UNL1       -0.0506
     26  C17        6.2980   -1.0980   -1.0600 C.3     1  UNL1       -0.0385
     27  C18        5.1260   -0.4050   -1.7240 C.3     1  UNL1        0.0205
     28  C19        0.5770   -0.0950    0.4570 C.ar    1  UNL1       -0.0232
     29 H          -1.6230    0.6404   -1.0912 H       1  UNL1        0.1731
     30 H          -3.9277    1.7654   -0.8634 H       1  UNL1        0.1731
     31 H          -6.3168   -1.9831    0.1992 H       1  UNL1        0.0626
     32 H          -8.6795   -2.0232   -0.0383 H       1  UNL1        0.0618
     33 H          -9.8713   -0.0516   -0.8305 H       1  UNL1        0.0619
     34 H          -8.5834    1.9091   -1.3512 H       1  UNL1        0.0654
     35 H          -5.0817    2.2638   -1.0971 H       1  UNL1        0.2922
     36 H          -0.7350    0.7691    3.3692 H       1  UNL1        0.0625
     37 H           1.5379    0.3612    4.0874 H       1  UNL1        0.0618
     38 H           3.1841   -0.3443    2.4586 H       1  UNL1        0.0637
     39 H           5.1375   -0.0622    1.0852 H       1  UNL1        0.0444
     40 H           4.5708    1.5818    0.7769 H       1  UNL1        0.0444
     41 H           6.9665    1.5452    0.7651 H       1  UNL1        0.0278
     42 H           6.3396    1.8507   -0.8656 H       1  UNL1        0.0278
     43 H           7.9140   -0.3903    0.1350 H       1  UNL1        0.0266
     44 H           7.8557    0.3117   -1.4522 H       1  UNL1        0.0266
     45 H           5.9627   -1.6555   -0.2105 H       1  UNL1        0.0278
     46 H           6.7707   -1.7816   -1.7339 H       1  UNL1        0.0278
     47 H           5.4996    0.3318   -2.4040 H       1  UNL1        0.0444
     48 H           4.5496   -1.1461   -2.2373 H       1  UNL1        0.0444
     49 H           0.3057   -0.2149   -0.5315 H       1  UNL1        0.0644
@<TRIPOS>BOND
     1     1     2    2
     2     2     3   am
     3     2    14    1
     4     3     4    1
     5     4     5   am
     6     5     6    2
     7     5     7    1
     8     7     8   ar
     9     7    12   ar
    10     8     9   ar
    11     9    10   ar
    12    10    11   ar
    13    11    12   ar
    14    12    13    1
    15    14    15   ar
    16    14    28   ar
    17    15    16   ar
    18    16    17   ar
    19    17    18   ar
    20    18    19    1
    21    18    28   ar
    22    19    20    2
    23    19    21    2
    24    19    22    1
    25    22    23    1
    26    22    27    1
    27    23    24    1
    28    24    25    1
    29    25    26    1
    30    26    27    1
    31     3    29    1
    32     4    30    1
    33     8    31    1
    34     9    32    1
    35    10    33    1
    36    11    34    1
    37    13    35    1
    38    15    36    1
    39    16    37    1
    40    17    38    1
    41    23    39    1
    42    23    40    1
    43    24    41    1
    44    24    42    1
    45    25    43    1
    46    25    44    1
    47    26    45    1
    48    26    46    1
    49    27    47    1
    50    27    48    1
    51    28    49    1
@<TRIPOS>MOLECULE
../data/bude_mols_rdkit_confs2/molecule_99.pdb
 49 51 0 0 0
SMALL
GASTEIGER

@<TRIPOS>ATOM
      1  O1         1.0390   -0.9380   -0.4760 O.2     1  UNL1       -0.2687
      2  C1         1.2990   -0.0240    0.3190 C.2     1  UNL1        0.2602
      3  N1         2.6270    0.3080    0.6380 N.am    1  UNL1       -0.2301
      4  N2         3.7370   -0.3740    0.0710 N.am    1  UNL1       -0.2300
      5  C2         4.7360    0.3380   -0.6310 C.2     1  UNL1        0.2637
      6  O2         4.5580    1.6020   -0.7160 O.2     1  UNL1       -0.2685
      7  C3         5.9220   -0.2050   -1.2500 C.ar    1  UNL1        0.0795
      8  C4         6.8190    0.6710   -1.8790 C.ar    1  UNL1       -0.0460
      9  C5         7.9840    0.2490   -2.4740 C.ar    1  UNL1       -0.0608
     10  C6         8.3360   -1.0810   -2.4820 C.ar    1  UNL1       -0.0583
     11  C7         7.4680   -1.9640   -1.8690 C.ar    1  UNL1       -0.0194
     12  C8         6.2930   -1.5220   -1.2720 C.ar    1  UNL1        0.1290
     13  O3         5.4760   -2.4870   -0.6820 O.3     1  UNL1       -0.5060
     14  C9         0.2240    0.7310    0.9430 C.ar    1  UNL1        0.0400
     15  C10        0.4300    2.0250    1.3940 C.ar    1  UNL1       -0.0495
     16  C11       -0.6070    2.6980    1.9880 C.ar    1  UNL1       -0.0592
     17  C12       -1.8580    2.0900    2.1390 C.ar    1  UNL1       -0.0353
     18  C13       -2.0670    0.8010    1.6910 C.ar    1  UNL1        0.1062
     19  S1        -3.6270    0.0470    1.8830 S.O2    1  UNL1        0.0609
     20  O4        -4.2520    0.4840    3.2010 O.2     1  UNL1       -0.1528
     21  O5        -3.3680   -1.4460    2.0350 O.2     1  UNL1       -0.1528
     22  N3        -4.6640    0.2920    0.5770 N.3     1  UNL1       -0.1766
     23  C14       -4.1850   -0.2400   -0.6170 C.3     1  UNL1        0.0205
     24  C15       -5.1480   -1.3460   -1.0770 C.3     1  UNL1       -0.0385
     25  C16       -6.4390   -0.6310   -1.3580 C.3     1  UNL1       -0.0506
     26  C17       -7.0150    0.0350   -0.1380 C.3     1  UNL1       -0.0385
     27  C18       -5.9980    0.5880    0.7990 C.3     1  UNL1        0.0205
     28  C19       -1.0180    0.1400    1.0980 C.ar    1  UNL1       -0.0232
     29 H           2.7939    1.0385    1.2765 H       1  UNL1        0.1731
     30 H           3.8109   -1.3509    0.1679 H       1  UNL1        0.1731
     31 H           6.5940    1.6780   -1.8958 H       1  UNL1        0.0626
     32 H           8.6048    0.9411   -2.9220 H       1  UNL1        0.0618
     33 H           9.2095   -1.4047   -2.9261 H       1  UNL1        0.0619
     34 H           7.6962   -2.9703   -1.8541 H       1  UNL1        0.0654
     35 H           4.6746   -2.2330   -0.2683 H       1  UNL1        0.2922
     36 H           1.3516    2.4764    1.2844 H       1  UNL1        0.0625
     37 H          -0.4631    3.6621    2.3268 H       1  UNL1        0.0618
     38 H          -2.6292    2.6083    2.5880 H       1  UNL1        0.0637
     39 H          -3.2093   -0.6514   -0.4634 H       1  UNL1        0.0444
     40 H          -4.1227    0.5259   -1.3616 H       1  UNL1        0.0444
     41 H          -5.2805   -2.0762   -0.3062 H       1  UNL1        0.0278
     42 H          -4.7814   -1.8734   -1.9328 H       1  UNL1        0.0278
     43 H          -7.1494   -1.3408   -1.7273 H       1  UNL1        0.0266
     44 H          -6.2329    0.1352   -2.0759 H       1  UNL1        0.0266
     45 H          -7.6010   -0.6866    0.3920 H       1  UNL1        0.0278
     46 H          -7.5920    0.8656   -0.4873 H       1  UNL1        0.0278
     47 H          -6.0931    1.6535    0.7752 H       1  UNL1        0.0444
     48 H          -6.2188    0.1154    1.7332 H       1  UNL1        0.0444
     49 H          -1.1604   -0.8242    0.7587 H       1  UNL1        0.0644
@<TRIPOS>BOND
     1     1     2    2
     2     2     3   am
     3     2    14    1
     4     3     4    1
     5     4     5   am
     6     5     6    2
     7     5     7    1
     8     7     8   ar
     9     7    12   ar
    10     8     9   ar
    11     9    10   ar
    12    10    11   ar
    13    11    12   ar
    14    12    13    1
    15    14    15   ar
    16    14    28   ar
    17    15    16   ar
    18    16    17   ar
    19    17    18   ar
    20    18    19    1
    21    18    28   ar
    22    19    20    2
    23    19    21    2
    24    19    22    1
    25    22    23    1
    26    22    27    1
    27    23    24    1
    28    24    25    1
    29    25    26    1
    30    26    27    1
    31     3    29    1
    32     4    30    1
    33     8    31    1
    34     9    32    1
    35    10    33    1
    36    11    34    1
    37    13    35    1
    38    15    36    1
    39    16    37    1
    40    17    38    1
    41    23    39    1
    42    23    40    1
    43    24    41    1
    44    24    42    1
    45    25    43    1
    46    25    44    1
    47    26    45    1
    48    26    46    1
    49    27    47    1
    50    27    48    1
    51    28    49    1
@<TRIPOS>MOLECULE
../data/bude_mols_rdkit_confs2/molecule_99.pdb
 49 51 0 0 0
SMALL
GASTEIGER

@<TRIPOS>ATOM
      1  O1         1.4290    0.1160    0.6420 O.2     1  UNL1       -0.2687
      2  C1         1.2280   -0.1330   -0.5970 C.2     1  UNL1        0.2602
      3  N1         2.3010   -0.7480   -1.2740 N.am    1  UNL1       -0.2301
      4  N2         3.5170   -1.0690   -0.6220 N.am    1  UNL1       -0.2300
      5  C2         4.7470   -0.4440   -0.9620 C.2     1  UNL1        0.2637
      6  O2         4.6560    0.4060   -1.8760 O.2     1  UNL1       -0.2685
      7  C3         6.0240   -0.7290   -0.3360 C.ar    1  UNL1        0.0795
      8  C4         6.1110   -1.6860    0.6810 C.ar    1  UNL1       -0.0460
      9  C5         7.3090   -1.9870    1.2950 C.ar    1  UNL1       -0.0608
     10  C6         8.4810   -1.3590    0.9390 C.ar    1  UNL1       -0.0583
     11  C7         8.4080   -0.4260   -0.0500 C.ar    1  UNL1       -0.0194
     12  C8         7.1890   -0.1010   -0.6940 C.ar    1  UNL1        0.1290
     13  O3         7.2470    0.8510   -1.6680 O.3     1  UNL1       -0.5060
     14  C9        -0.0220    0.2010   -1.2430 C.ar    1  UNL1        0.0400
     15  C10       -0.2200   -0.0420   -2.5700 C.ar    1  UNL1       -0.0495
     16  C11       -1.4060    0.2550   -3.2430 C.ar    1  UNL1       -0.0592
     17  C12       -2.4190    0.8240   -2.5150 C.ar    1  UNL1       -0.0353
     18  C13       -2.2600    1.0850   -1.1770 C.ar    1  UNL1        0.1062
     19  S1        -3.5980    1.8080   -0.3200 S.O2    1  UNL1        0.0609
     20  O4        -3.1290    2.7580    0.7360 O.2     1  UNL1       -0.1528
     21  O5        -4.4160    2.6200   -1.3050 O.2     1  UNL1       -0.1528
     22  N3        -4.6240    0.6470    0.3560 N.3     1  UNL1       -0.1766
     23  C14       -4.0850   -0.2260    1.3200 C.3     1  UNL1        0.0205
     24  C15       -4.6950   -0.2110    2.6760 C.3     1  UNL1       -0.0385
     25  C16       -6.1090    0.2210    2.7650 C.3     1  UNL1       -0.0506
     26  C17       -6.8160    0.3770    1.4660 C.3     1  UNL1       -0.0385
     27  C18       -6.0000    0.9190    0.3550 C.3     1  UNL1        0.0205
     28  C19       -1.0790    0.7780   -0.5520 C.ar    1  UNL1       -0.0232
     29 H           2.2020   -0.9611   -2.2301 H       1  UNL1        0.1731
     30 H           3.5096   -1.7481    0.0908 H       1  UNL1        0.1731
     31 H           5.2557   -2.1801    0.9799 H       1  UNL1        0.0626
     32 H           7.3270   -2.7009    2.0400 H       1  UNL1        0.0618
     33 H           9.3755   -1.5853    1.4013 H       1  UNL1        0.0619
     34 H           9.2703    0.0610   -0.3403 H       1  UNL1        0.0654
     35 H           6.4683    1.1022   -2.1246 H       1  UNL1        0.2922
     36 H           0.5506   -0.4696   -3.1070 H       1  UNL1        0.0625
     37 H          -1.5162    0.0542   -4.2493 H       1  UNL1        0.0618
     38 H          -3.3108    1.0586   -2.9782 H       1  UNL1        0.0637
     39 H          -3.0495    0.0193    1.4315 H       1  UNL1        0.0444
     40 H          -4.2844   -1.2069    0.9418 H       1  UNL1        0.0444
     41 H          -4.1150    0.4505    3.2850 H       1  UNL1        0.0278
     42 H          -4.6923   -1.2318    2.9967 H       1  UNL1        0.0278
     43 H          -6.1339    1.1647    3.2688 H       1  UNL1        0.0266
     44 H          -6.6218   -0.5608    3.2854 H       1  UNL1        0.0266
     45 H          -7.6440    1.0372    1.6189 H       1  UNL1        0.0278
     46 H          -7.0998   -0.6102    1.1665 H       1  UNL1        0.0278
     47 H          -6.4014    0.5263   -0.5558 H       1  UNL1        0.0444
     48 H          -6.0629    1.9809    0.4701 H       1  UNL1        0.0444
     49 H          -0.9733    0.9803    0.4544 H       1  UNL1        0.0644
@<TRIPOS>BOND
     1     1     2    2
     2     2     3   am
     3     2    14    1
     4     3     4    1
     5     4     5   am
     6     5     6    2
     7     5     7    1
     8     7     8   ar
     9     7    12   ar
    10     8     9   ar
    11     9    10   ar
    12    10    11   ar
    13    11    12   ar
    14    12    13    1
    15    14    15   ar
    16    14    28   ar
    17    15    16   ar
    18    16    17   ar
    19    17    18   ar
    20    18    19    1
    21    18    28   ar
    22    19    20    2
    23    19    21    2
    24    19    22    1
    25    22    23    1
    26    22    27    1
    27    23    24    1
    28    24    25    1
    29    25    26    1
    30    26    27    1
    31     3    29    1
    32     4    30    1
    33     8    31    1
    34     9    32    1
    35    10    33    1
    36    11    34    1
    37    13    35    1
    38    15    36    1
    39    16    37    1
    40    17    38    1
    41    23    39    1
    42    23    40    1
    43    24    41    1
    44    24    42    1
    45    25    43    1
    46    25    44    1
    47    26    45    1
    48    26    46    1
    49    27    47    1
    50    27    48    1
    51    28    49    1
