@<TRIPOS>MOLECULE
../data/bude_mols_rdkit_confs2/molecule_51.pdb
 39 41 0 0 0
SMALL
GASTEIGER

@<TRIPOS>ATOM
      1  C1        -2.5230    1.4710   -1.3930 C.3     1  UNL1       -0.0648
      2  C2        -2.8420    0.0340   -1.2710 C.3     1  UNL1       -0.0502
      3  C3        -2.6410   -0.6180    0.0560 C.3     1  UNL1       -0.0294
      4  C4        -1.2730   -0.6550    0.6300 C.3     1  UNL1       -0.0471
      5  C5        -0.6100    0.6810    0.8890 C.3     1  UNL1       -0.0485
      6  C6         0.7610    0.4690    1.5290 C.3     1  UNL1       -0.0265
      7  C7         1.7010   -0.2820    0.6900 C.ar    1  UNL1       -0.0232
      8  C8         1.7830   -1.6780    0.8040 C.ar    1  UNL1        0.0270
      9  C9         2.6130   -2.3550   -0.0400 C.ar    1  UNL1        0.3387
     10  O1         2.6810   -3.6040    0.0690 O.2     1  UNL1       -0.2451
     11  O2         3.3420   -1.7760   -0.9560 O.2     1  UNL1       -0.4051
     12  C10        3.3170   -0.4760   -1.1180 C.ar    1  UNL1        0.2190
     13  N1         4.0900    0.1080   -2.0780 N.ar    1  UNL1       -0.2777
     14  C11        4.0650    1.4430   -2.2350 C.ar    1  UNL1        0.3294
     15  O3         4.7970    1.9390   -3.1370 O.2     1  UNL1       -0.2466
     16  N2         3.2880    2.2150   -1.4590 N.ar    1  UNL1       -0.2744
     17  C12        2.5050    1.6490   -0.4920 C.ar    1  UNL1        0.2651
     18  O4         1.7880    2.3580    0.2320 O.2     1  UNL1       -0.2669
     19  C13        2.5030    0.2840   -0.3050 C.ar    1  UNL1        0.1029
     20  C14       -3.7530   -0.5950    1.0630 C.3     1  UNL1       -0.0469
     21  C15       -3.5510   -1.8180    0.2700 C.3     1  UNL1       -0.0469
     22 H          -2.7157    1.7954   -2.3943 H       1  UNL1        0.0230
     23 H          -1.4907    1.6283   -1.1596 H       1  UNL1        0.0230
     24 H          -3.1315    2.0304   -0.7135 H       1  UNL1        0.0230
     25 H          -2.2319   -0.4885   -1.9779 H       1  UNL1        0.0268
     26 H          -3.8974   -0.0206   -1.4384 H       1  UNL1        0.0268
     27 H          -0.6508   -1.1999   -0.0488 H       1  UNL1        0.0271
     28 H          -1.3837   -1.1064    1.5938 H       1  UNL1        0.0271
     29 H          -1.2233    1.2589    1.5484 H       1  UNL1        0.0269
     30 H          -0.4878    1.1982   -0.0397 H       1  UNL1        0.0269
     31 H           0.6255   -0.0669    2.4452 H       1  UNL1        0.0313
     32 H           1.1864    1.4394    1.6785 H       1  UNL1        0.0313
     33 H           1.2266   -2.1821    1.5120 H       1  UNL1        0.0692
     34 H           4.6645   -0.4463   -2.6542 H       1  UNL1        0.1733
     35 H           3.2821    3.1912   -1.5866 H       1  UNL1        0.1734
     36 H          -4.6148    0.0146    0.8882 H       1  UNL1        0.0271
     37 H          -3.8087   -0.3840    2.1105 H       1  UNL1        0.0271
     38 H          -3.1695   -2.7015    0.7378 H       1  UNL1        0.0271
     39 H          -4.1700   -2.4194   -0.3625 H       1  UNL1        0.0271
@<TRIPOS>BOND
     1     1     2    1
     2     2     3    1
     3     3     4    1
     4     3    20    1
     5     3    21    1
     6     4     5    1
     7     5     6    1
     8     6     7    1
     9     7     8   ar
    10     7    19   ar
    11     8     9   ar
    12     9    10    2
    13     9    11   ar
    14    11    12   ar
    15    12    13   ar
    16    12    19   ar
    17    13    14   ar
    18    14    15    2
    19    14    16   ar
    20    16    17   ar
    21    17    18    2
    22    17    19   ar
    23    20    21    1
    24     1    22    1
    25     1    23    1
    26     1    24    1
    27     2    25    1
    28     2    26    1
    29     4    27    1
    30     4    28    1
    31     5    29    1
    32     5    30    1
    33     6    31    1
    34     6    32    1
    35     8    33    1
    36    13    34    1
    37    16    35    1
    38    20    36    1
    39    20    37    1
    40    21    38    1
    41    21    39    1
@<TRIPOS>MOLECULE
../data/bude_mols_rdkit_confs2/molecule_51.pdb
 39 41 0 0 0
SMALL
GASTEIGER

@<TRIPOS>ATOM
      1  C1         3.9090    0.5960   -1.3160 C.3     1  UNL1       -0.0648
      2  C2         3.2260   -0.4240   -0.4680 C.3     1  UNL1       -0.0502
      3  C3         2.5950    0.2870    0.7300 C.3     1  UNL1       -0.0294
      4  C4         1.5790    1.3360    0.4060 C.3     1  UNL1       -0.0471
      5  C5         0.3970    0.7920   -0.3640 C.3     1  UNL1       -0.0485
      6  C6        -0.2770   -0.2660    0.4560 C.3     1  UNL1       -0.0265
      7  C7        -1.4490   -0.8710   -0.1650 C.ar    1  UNL1       -0.0232
      8  C8        -1.3370   -2.0740   -0.8640 C.ar    1  UNL1        0.0270
      9  C9        -2.4460   -2.5870   -1.4770 C.ar    1  UNL1        0.3387
     10  O1        -2.3560   -3.6910   -2.1240 O.2     1  UNL1       -0.2451
     11  O2        -3.6120   -1.9980   -1.4390 O.2     1  UNL1       -0.4051
     12  C10       -3.7640   -0.8680   -0.7930 C.ar    1  UNL1        0.2190
     13  N1        -4.9760   -0.2640   -0.7540 N.ar    1  UNL1       -0.2777
     14  C11       -5.1080    0.8860   -0.0870 C.ar    1  UNL1        0.3294
     15  O3        -6.2430    1.4470   -0.0540 O.2     1  UNL1       -0.2466
     16  N2        -4.0850    1.4730    0.5510 N.ar    1  UNL1       -0.2744
     17  C12       -2.8570    0.9090    0.5400 C.ar    1  UNL1        0.2651
     18  O4        -1.8970    1.4540    1.1390 O.2     1  UNL1       -0.2669
     19  C13       -2.6800   -0.2700   -0.1350 C.ar    1  UNL1        0.1029
     20  C14        3.5630    0.5940    1.8560 C.3     1  UNL1       -0.0469
     21  C15        2.5310   -0.4950    1.9870 C.3     1  UNL1       -0.0469
     22 H           4.3571    0.1155   -2.1606 H       1  UNL1        0.0230
     23 H           4.6664    1.0877   -0.7420 H       1  UNL1        0.0230
     24 H           3.1933    1.3163   -1.6536 H       1  UNL1        0.0230
     25 H           3.9387   -1.1450   -0.1258 H       1  UNL1        0.0268
     26 H           2.4714   -0.9276   -1.0354 H       1  UNL1        0.0268
     27 H           2.0489    2.0964   -0.1821 H       1  UNL1        0.0271
     28 H           1.2086    1.7216    1.3328 H       1  UNL1        0.0271
     29 H           0.7346    0.3691   -1.2871 H       1  UNL1        0.0269
     30 H          -0.2936    1.5827   -0.5706 H       1  UNL1        0.0269
     31 H          -0.5820    0.1752    1.3818 H       1  UNL1        0.0313
     32 H           0.4381   -1.0527    0.5767 H       1  UNL1        0.0313
     33 H          -0.4324   -2.5678   -0.9171 H       1  UNL1        0.0692
     34 H          -5.7492   -0.6671   -1.2111 H       1  UNL1        0.1733
     35 H          -4.2295    2.3205    1.0306 H       1  UNL1        0.1734
     36 H           3.4652    1.4990    2.4184 H       1  UNL1        0.0271
     37 H           4.6268    0.6540    1.9537 H       1  UNL1        0.0271
     38 H           2.8368   -1.5204    1.9922 H       1  UNL1        0.0271
     39 H           1.7597   -0.7175    2.6945 H       1  UNL1        0.0271
@<TRIPOS>BOND
     1     1     2    1
     2     2     3    1
     3     3     4    1
     4     3    20    1
     5     3    21    1
     6     4     5    1
     7     5     6    1
     8     6     7    1
     9     7     8   ar
    10     7    19   ar
    11     8     9   ar
    12     9    10    2
    13     9    11   ar
    14    11    12   ar
    15    12    13   ar
    16    12    19   ar
    17    13    14   ar
    18    14    15    2
    19    14    16   ar
    20    16    17   ar
    21    17    18    2
    22    17    19   ar
    23    20    21    1
    24     1    22    1
    25     1    23    1
    26     1    24    1
    27     2    25    1
    28     2    26    1
    29     4    27    1
    30     4    28    1
    31     5    29    1
    32     5    30    1
    33     6    31    1
    34     6    32    1
    35     8    33    1
    36    13    34    1
    37    16    35    1
    38    20    36    1
    39    20    37    1
    40    21    38    1
    41    21    39    1
@<TRIPOS>MOLECULE
../data/bude_mols_rdkit_confs2/molecule_51.pdb
 39 41 0 0 0
SMALL
GASTEIGER

@<TRIPOS>ATOM
      1  C1         3.2300    2.1520    0.3050 C.3     1  UNL1       -0.0648
      2  C2         2.4450    1.0980    0.9910 C.3     1  UNL1       -0.0502
      3  C3         2.5700   -0.2820    0.3920 C.3     1  UNL1       -0.0294
      4  C4         1.7710   -1.3690    1.0500 C.3     1  UNL1       -0.0471
      5  C5         0.2780   -1.1810    1.0030 C.3     1  UNL1       -0.0485
      6  C6        -0.2780   -1.2040   -0.4050 C.3     1  UNL1       -0.0265
      7  C7        -1.7470   -1.0840   -0.4780 C.ar    1  UNL1       -0.0232
      8  C8        -2.5510   -2.2420   -0.4830 C.ar    1  UNL1        0.0270
      9  C9        -3.9180   -2.2280   -0.4780 C.ar    1  UNL1        0.3387
     10  O1        -4.5700   -3.3320   -0.4820 O.2     1  UNL1       -0.2451
     11  O2        -4.5410   -1.0790   -0.4680 O.2     1  UNL1       -0.4051
     12  C10       -3.8800    0.0500   -0.4650 C.ar    1  UNL1        0.2190
     13  N1        -4.5220    1.2320   -0.4600 N.ar    1  UNL1       -0.2777
     14  C11       -3.8560    2.4140   -0.4620 C.ar    1  UNL1        0.3294
     15  O3        -4.4890    3.5040   -0.4570 O.2     1  UNL1       -0.2466
     16  N2        -2.5140    2.4340   -0.4720 N.ar    1  UNL1       -0.2744
     17  C12       -1.8450    1.2750   -0.4760 C.ar    1  UNL1        0.2651
     18  O4        -0.6200    1.3080   -0.4890 O.2     1  UNL1       -0.2669
     19  C13       -2.4790    0.0760   -0.4700 C.ar    1  UNL1        0.1029
     20  C14        3.0730   -0.4780   -0.9900 C.3     1  UNL1       -0.0469
     21  C15        4.0400   -0.6770    0.1500 C.3     1  UNL1       -0.0469
     22 H           3.0777    3.0887    0.7992 H       1  UNL1        0.0230
     23 H           2.9098    2.2296   -0.7130 H       1  UNL1        0.0230
     24 H           4.2691    1.8984    0.3337 H       1  UNL1        0.0230
     25 H           1.4134    1.3804    0.9617 H       1  UNL1        0.0268
     26 H           2.8388    1.0300    1.9836 H       1  UNL1        0.0268
     27 H           2.0663   -1.4223    2.0771 H       1  UNL1        0.0271
     28 H           1.9763   -2.2641    0.5009 H       1  UNL1        0.0271
     29 H           0.0391   -0.2379    1.4484 H       1  UNL1        0.0269
     30 H          -0.1639   -1.9977    1.5346 H       1  UNL1        0.0269
     31 H           0.0062   -2.1284   -0.8628 H       1  UNL1        0.0313
     32 H           0.1253   -0.3504   -0.9085 H       1  UNL1        0.0313
     33 H          -2.0774   -3.1589   -0.4909 H       1  UNL1        0.0692
     34 H          -5.5065    1.2396   -0.4547 H       1  UNL1        0.1733
     35 H          -2.0281    3.2902   -0.4763 H       1  UNL1        0.1734
     36 H           3.1845    0.3664   -1.6376 H       1  UNL1        0.0271
     37 H           2.7623   -1.0814   -1.8172 H       1  UNL1        0.0271
     38 H           4.3835   -1.6587    0.4013 H       1  UNL1        0.0271
     39 H           4.9954   -0.2801    0.4230 H       1  UNL1        0.0271
@<TRIPOS>BOND
     1     1     2    1
     2     2     3    1
     3     3     4    1
     4     3    20    1
     5     3    21    1
     6     4     5    1
     7     5     6    1
     8     6     7    1
     9     7     8   ar
    10     7    19   ar
    11     8     9   ar
    12     9    10    2
    13     9    11   ar
    14    11    12   ar
    15    12    13   ar
    16    12    19   ar
    17    13    14   ar
    18    14    15    2
    19    14    16   ar
    20    16    17   ar
    21    17    18    2
    22    17    19   ar
    23    20    21    1
    24     1    22    1
    25     1    23    1
    26     1    24    1
    27     2    25    1
    28     2    26    1
    29     4    27    1
    30     4    28    1
    31     5    29    1
    32     5    30    1
    33     6    31    1
    34     6    32    1
    35     8    33    1
    36    13    34    1
    37    16    35    1
    38    20    36    1
    39    20    37    1
    40    21    38    1
    41    21    39    1
@<TRIPOS>MOLECULE
../data/bude_mols_rdkit_confs2/molecule_51.pdb
 39 41 0 0 0
SMALL
GASTEIGER

@<TRIPOS>ATOM
      1  C1        -3.4630    1.3890    0.4960 C.3     1  UNL1       -0.0648
      2  C2        -3.8910   -0.0310    0.6640 C.3     1  UNL1       -0.0502
      3  C3        -3.1000   -1.0000   -0.1710 C.3     1  UNL1       -0.0294
      4  C4        -1.6410   -1.1400    0.0420 C.3     1  UNL1       -0.0471
      5  C5        -0.7680    0.0480   -0.1450 C.3     1  UNL1       -0.0485
      6  C6         0.6730   -0.4900    0.1080 C.3     1  UNL1       -0.0265
      7  C7         1.6380    0.6010   -0.0510 C.ar    1  UNL1       -0.0232
      8  C8         1.2750    1.8920   -0.3930 C.ar    1  UNL1        0.0270
      9  C9         2.2350    2.8600   -0.5240 C.ar    1  UNL1        0.3387
     10  O1         1.8530    4.0330   -0.8400 O.2     1  UNL1       -0.2451
     11  O2         3.4920    2.5630   -0.3260 O.2     1  UNL1       -0.4051
     12  C10        3.9110    1.3760   -0.0030 C.ar    1  UNL1        0.2190
     13  N1         5.2240    1.1420    0.1860 N.ar    1  UNL1       -0.2777
     14  C11        5.6500   -0.0890    0.5200 C.ar    1  UNL1        0.3294
     15  O3         6.8750   -0.3280    0.7000 O.2     1  UNL1       -0.2466
     16  N2         4.7790   -1.0890    0.6670 N.ar    1  UNL1       -0.2744
     17  C12        3.4490   -0.8790    0.4830 C.ar    1  UNL1        0.2651
     18  O4         2.6650   -1.8260    0.6270 O.2     1  UNL1       -0.2669
     19  C13        2.9710    0.3550    0.1420 C.ar    1  UNL1        0.1029
     20  C14       -3.7120   -1.3790   -1.4810 C.3     1  UNL1       -0.0469
     21  C15       -3.7840   -2.3740   -0.4120 C.3     1  UNL1       -0.0469
     22 H          -4.0657    2.0189    1.1164 H       1  UNL1        0.0230
     23 H          -3.5808    1.6783   -0.5274 H       1  UNL1        0.0230
     24 H          -2.4357    1.4877    0.7786 H       1  UNL1        0.0230
     25 H          -4.9217   -0.1088    0.3875 H       1  UNL1        0.0268
     26 H          -3.7244   -0.2903    1.6887 H       1  UNL1        0.0268
     27 H          -1.2960   -1.8924   -0.6361 H       1  UNL1        0.0271
     28 H          -1.5542   -1.3604    1.0855 H       1  UNL1        0.0271
     29 H          -1.0154    0.8149    0.5590 H       1  UNL1        0.0269
     30 H          -0.8764    0.4866   -1.1149 H       1  UNL1        0.0269
     31 H           0.8926   -1.2655   -0.5958 H       1  UNL1        0.0313
     32 H           0.7378   -0.8807    1.1020 H       1  UNL1        0.0313
     33 H           0.2819    2.1251   -0.5492 H       1  UNL1        0.0692
     34 H           5.8735    1.8741    0.0793 H       1  UNL1        0.1733
     35 H           5.1025   -1.9863    0.9108 H       1  UNL1        0.1734
     36 H          -3.0788   -1.5587   -2.3246 H       1  UNL1        0.0271
     37 H          -4.4450   -0.9209   -2.1117 H       1  UNL1        0.0271
     38 H          -4.7220   -2.5956    0.0528 H       1  UNL1        0.0271
     39 H          -3.4921   -3.3979   -0.3052 H       1  UNL1        0.0271
@<TRIPOS>BOND
     1     1     2    1
     2     2     3    1
     3     3     4    1
     4     3    20    1
     5     3    21    1
     6     4     5    1
     7     5     6    1
     8     6     7    1
     9     7     8   ar
    10     7    19   ar
    11     8     9   ar
    12     9    10    2
    13     9    11   ar
    14    11    12   ar
    15    12    13   ar
    16    12    19   ar
    17    13    14   ar
    18    14    15    2
    19    14    16   ar
    20    16    17   ar
    21    17    18    2
    22    17    19   ar
    23    20    21    1
    24     1    22    1
    25     1    23    1
    26     1    24    1
    27     2    25    1
    28     2    26    1
    29     4    27    1
    30     4    28    1
    31     5    29    1
    32     5    30    1
    33     6    31    1
    34     6    32    1
    35     8    33    1
    36    13    34    1
    37    16    35    1
    38    20    36    1
    39    20    37    1
    40    21    38    1
    41    21    39    1
@<TRIPOS>MOLECULE
../data/bude_mols_rdkit_confs2/molecule_51.pdb
 39 41 0 0 0
SMALL
GASTEIGER

@<TRIPOS>ATOM
      1  C1        -4.2680    1.4350   -0.0460 C.3     1  UNL1       -0.0648
      2  C2        -3.0350    1.1130   -0.8190 C.3     1  UNL1       -0.0502
      3  C3        -2.3090   -0.1220   -0.1730 C.3     1  UNL1       -0.0294
      4  C4        -1.0940   -0.4360   -0.9280 C.3     1  UNL1       -0.0471
      5  C5        -0.1930   -1.5370   -0.4790 C.3     1  UNL1       -0.0485
      6  C6         0.4820   -1.2520    0.8420 C.3     1  UNL1       -0.0265
      7  C7         1.3800   -0.0650    0.7630 C.ar    1  UNL1       -0.0232
      8  C8         0.9050    1.2200    1.0700 C.ar    1  UNL1        0.0270
      9  C9         1.6380    2.3530    0.9590 C.ar    1  UNL1        0.3387
     10  O1         1.0890    3.4450    1.2680 O.2     1  UNL1       -0.2451
     11  O2         2.8660    2.2610    0.5420 O.2     1  UNL1       -0.4051
     12  C10        3.3940    1.1090    0.2350 C.ar    1  UNL1        0.2190
     13  N1         4.6760    1.0460   -0.1920 N.ar    1  UNL1       -0.2777
     14  C11        5.2450   -0.1290   -0.5090 C.ar    1  UNL1        0.3294
     15  O3         6.4330   -0.1500   -0.9000 O.2     1  UNL1       -0.2466
     16  N2         4.5620   -1.2990   -0.4160 N.ar    1  UNL1       -0.2744
     17  C12        3.2880   -1.2900    0.0010 C.ar    1  UNL1        0.2651
     18  O4         2.6610   -2.3610    0.0910 O.2     1  UNL1       -0.2669
     19  C13        2.6870   -0.1020    0.3280 C.ar    1  UNL1        0.1029
     20  C14       -2.8470   -0.5720    1.0750 C.3     1  UNL1       -0.0469
     21  C15       -3.2940   -1.3350   -0.1850 C.3     1  UNL1       -0.0469
     22 H          -4.7579    2.2762   -0.4902 H       1  UNL1        0.0230
     23 H          -4.0047    1.6682    0.9645 H       1  UNL1        0.0230
     24 H          -4.9265    0.5917   -0.0575 H       1  UNL1        0.0230
     25 H          -2.3779    1.9574   -0.8074 H       1  UNL1        0.0268
     26 H          -3.3020    0.8777   -1.8281 H       1  UNL1        0.0268
     27 H          -0.5039    0.4564   -0.9461 H       1  UNL1        0.0271
     28 H          -1.4740   -0.7980   -1.8605 H       1  UNL1        0.0271
     29 H           0.5625   -1.6828   -1.2225 H       1  UNL1        0.0269
     30 H          -0.7986   -2.4089   -0.3451 H       1  UNL1        0.0269
     31 H           1.0613   -2.1057    1.1257 H       1  UNL1        0.0313
     32 H          -0.2789   -1.0444    1.5651 H       1  UNL1        0.0313
     33 H          -0.0681    1.3068    1.4026 H       1  UNL1        0.0692
     34 H           5.2009    1.8751   -0.2718 H       1  UNL1        0.1733
     35 H           4.9996   -2.1484   -0.6533 H       1  UNL1        0.1734
     36 H          -3.5519    0.0420    1.5956 H       1  UNL1        0.0271
     37 H          -2.4056   -0.8741    2.0017 H       1  UNL1        0.0271
     38 H          -2.9407   -2.3260   -0.3798 H       1  UNL1        0.0271
     39 H          -4.2178   -1.5903   -0.6607 H       1  UNL1        0.0271
@<TRIPOS>BOND
     1     1     2    1
     2     2     3    1
     3     3     4    1
     4     3    20    1
     5     3    21    1
     6     4     5    1
     7     5     6    1
     8     6     7    1
     9     7     8   ar
    10     7    19   ar
    11     8     9   ar
    12     9    10    2
    13     9    11   ar
    14    11    12   ar
    15    12    13   ar
    16    12    19   ar
    17    13    14   ar
    18    14    15    2
    19    14    16   ar
    20    16    17   ar
    21    17    18    2
    22    17    19   ar
    23    20    21    1
    24     1    22    1
    25     1    23    1
    26     1    24    1
    27     2    25    1
    28     2    26    1
    29     4    27    1
    30     4    28    1
    31     5    29    1
    32     5    30    1
    33     6    31    1
    34     6    32    1
    35     8    33    1
    36    13    34    1
    37    16    35    1
    38    20    36    1
    39    20    37    1
    40    21    38    1
    41    21    39    1
@<TRIPOS>MOLECULE
../data/bude_mols_rdkit_confs2/molecule_51.pdb
 39 41 0 0 0
SMALL
GASTEIGER

@<TRIPOS>ATOM
      1  C1        -4.5550    1.0720   -0.0490 C.3     1  UNL1       -0.0648
      2  C2        -3.9840    0.5100    1.2330 C.3     1  UNL1       -0.0502
      3  C3        -2.6950   -0.2520    0.7820 C.3     1  UNL1       -0.0294
      4  C4        -1.7490    0.6600    0.1340 C.3     1  UNL1       -0.0471
      5  C5        -0.4400    0.2150   -0.3590 C.3     1  UNL1       -0.0485
      6  C6         0.5490   -0.3050    0.6320 C.3     1  UNL1       -0.0265
      7  C7         1.8520   -0.6940    0.0570 C.ar    1  UNL1       -0.0232
      8  C8         2.1480   -2.0050   -0.3030 C.ar    1  UNL1        0.0270
      9  C9         3.3220   -2.4100   -0.8710 C.ar    1  UNL1        0.3387
     10  O1         3.4990   -3.6340   -1.1650 O.2     1  UNL1       -0.2451
     11  O2         4.2420   -1.5060   -1.0980 O.2     1  UNL1       -0.4051
     12  C10        4.0400   -0.2520   -0.7870 C.ar    1  UNL1        0.2190
     13  N1         5.0390    0.6120   -1.0500 N.ar    1  UNL1       -0.2777
     14  C11        4.8790    1.8900   -0.7470 C.ar    1  UNL1        0.3294
     15  O3         5.8280    2.6890   -1.0020 O.2     1  UNL1       -0.2466
     16  N2         3.7490    2.3970   -0.1770 N.ar    1  UNL1       -0.2744
     17  C12        2.7510    1.5090    0.0810 C.ar    1  UNL1        0.2651
     18  O4         1.7330    1.9690    0.5970 O.2     1  UNL1       -0.2669
     19  C13        2.8660    0.1960   -0.2110 C.ar    1  UNL1        0.1029
     20  C14       -2.6020   -1.6040    1.2310 C.3     1  UNL1       -0.0469
     21  C15       -3.1610   -1.3850   -0.1830 C.3     1  UNL1       -0.0469
     22 H          -5.4505    1.6160    0.1678 H       1  UNL1        0.0230
     23 H          -4.7786    0.2703   -0.7214 H       1  UNL1        0.0230
     24 H          -3.8400    1.7275   -0.5007 H       1  UNL1        0.0230
     25 H          -4.6782   -0.1604    1.6951 H       1  UNL1        0.0268
     26 H          -3.7765    1.2712    1.9558 H       1  UNL1        0.0268
     27 H          -1.5517    1.4371    0.8426 H       1  UNL1        0.0271
     28 H          -2.2589    0.8962   -0.7765 H       1  UNL1        0.0271
     29 H           0.0137    1.0495   -0.8517 H       1  UNL1        0.0269
     30 H          -0.6632   -0.6289   -0.9779 H       1  UNL1        0.0269
     31 H           0.1244   -1.1646    1.1071 H       1  UNL1        0.0313
     32 H           0.7461    0.4974    1.3119 H       1  UNL1        0.0313
     33 H           1.4281   -2.7235   -0.1281 H       1  UNL1        0.0692
     34 H           5.8761    0.2973   -1.4617 H       1  UNL1        0.1733
     35 H           3.6600    3.3540    0.0364 H       1  UNL1        0.1734
     36 H          -3.2544   -1.9463    2.0070 H       1  UNL1        0.0271
     37 H          -1.8022   -2.1966    1.6235 H       1  UNL1        0.0271
     38 H          -2.5836   -1.6415   -1.0465 H       1  UNL1        0.0271
     39 H          -4.0487   -1.6391   -0.7236 H       1  UNL1        0.0271
@<TRIPOS>BOND
     1     1     2    1
     2     2     3    1
     3     3     4    1
     4     3    20    1
     5     3    21    1
     6     4     5    1
     7     5     6    1
     8     6     7    1
     9     7     8   ar
    10     7    19   ar
    11     8     9   ar
    12     9    10    2
    13     9    11   ar
    14    11    12   ar
    15    12    13   ar
    16    12    19   ar
    17    13    14   ar
    18    14    15    2
    19    14    16   ar
    20    16    17   ar
    21    17    18    2
    22    17    19   ar
    23    20    21    1
    24     1    22    1
    25     1    23    1
    26     1    24    1
    27     2    25    1
    28     2    26    1
    29     4    27    1
    30     4    28    1
    31     5    29    1
    32     5    30    1
    33     6    31    1
    34     6    32    1
    35     8    33    1
    36    13    34    1
    37    16    35    1
    38    20    36    1
    39    20    37    1
    40    21    38    1
    41    21    39    1
@<TRIPOS>MOLECULE
../data/bude_mols_rdkit_confs2/molecule_51.pdb
 39 41 0 0 0
SMALL
GASTEIGER

@<TRIPOS>ATOM
      1  C1        -4.2800    0.4640    1.7100 C.3     1  UNL1       -0.0648
      2  C2        -2.8240    0.6710    1.4750 C.3     1  UNL1       -0.0502
      3  C3        -2.3880    0.2080    0.0780 C.3     1  UNL1       -0.0294
      4  C4        -0.9010    0.4260   -0.1350 C.3     1  UNL1       -0.0471
      5  C5        -0.4800   -0.0410   -1.4310 C.3     1  UNL1       -0.0485
      6  C6         0.9330    0.0250   -1.9080 C.3     1  UNL1       -0.0265
      7  C7         1.9370   -0.6660   -1.1230 C.ar    1  UNL1       -0.0232
      8  C8         2.1430   -2.0430   -1.3220 C.ar    1  UNL1        0.0270
      9  C9         3.0050   -2.7190   -0.5020 C.ar    1  UNL1        0.3387
     10  O1         3.1950   -3.9680   -0.6760 O.2     1  UNL1       -0.2451
     11  O2         3.6560   -2.1400    0.4680 O.2     1  UNL1       -0.4051
     12  C10        3.5140   -0.8520    0.7090 C.ar    1  UNL1        0.2190
     13  N1         4.2020   -0.2700    1.7130 N.ar    1  UNL1       -0.2777
     14  C11        4.0480    1.0410    1.9290 C.ar    1  UNL1        0.3294
     15  O3         4.7160    1.5550    2.8890 O.2     1  UNL1       -0.2466
     16  N2         3.2350    1.7770    1.1800 N.ar    1  UNL1       -0.2744
     17  C12        2.5330    1.2350    0.1740 C.ar    1  UNL1        0.2651
     18  O4         1.7730    1.9270   -0.5370 O.2     1  UNL1       -0.2669
     19  C13        2.6490   -0.1040   -0.0900 C.ar    1  UNL1        0.1029
     20  C14       -3.2030   -0.7000   -0.7050 C.3     1  UNL1       -0.0469
     21  C15       -3.2580    0.7190   -1.0650 C.3     1  UNL1       -0.0469
     22 H          -4.5340    0.8008    2.6933 H       1  UNL1        0.0230
     23 H          -4.5117   -0.5766    1.6185 H       1  UNL1        0.0230
     24 H          -4.8404    1.0191    0.9870 H       1  UNL1        0.0230
     25 H          -2.2750    0.1175    2.2079 H       1  UNL1        0.0268
     26 H          -2.6263    1.7200    1.5488 H       1  UNL1        0.0268
     27 H          -0.3599   -0.1063    0.6192 H       1  UNL1        0.0271
     28 H          -0.7034    1.4759   -0.0757 H       1  UNL1        0.0271
     29 H          -1.0559    0.5122   -2.1432 H       1  UNL1        0.0269
     30 H          -0.6184   -1.0971   -1.3291 H       1  UNL1        0.0269
     31 H           1.2106    1.0577   -1.9461 H       1  UNL1        0.0313
     32 H           0.9268   -0.4821   -2.8502 H       1  UNL1        0.0313
     33 H           1.6484   -2.5392   -2.0798 H       1  UNL1        0.0692
     34 H           4.8080   -0.8019    2.2779 H       1  UNL1        0.1733
     35 H           3.1459    2.7395    1.3669 H       1  UNL1        0.1734
     36 H          -4.0565   -1.1625   -0.2551 H       1  UNL1        0.0271
     37 H          -2.9931   -1.5938   -1.2545 H       1  UNL1        0.0271
     38 H          -2.8093    1.0639   -1.9731 H       1  UNL1        0.0271
     39 H          -4.0276    1.4542   -1.1749 H       1  UNL1        0.0271
@<TRIPOS>BOND
     1     1     2    1
     2     2     3    1
     3     3     4    1
     4     3    20    1
     5     3    21    1
     6     4     5    1
     7     5     6    1
     8     6     7    1
     9     7     8   ar
    10     7    19   ar
    11     8     9   ar
    12     9    10    2
    13     9    11   ar
    14    11    12   ar
    15    12    13   ar
    16    12    19   ar
    17    13    14   ar
    18    14    15    2
    19    14    16   ar
    20    16    17   ar
    21    17    18    2
    22    17    19   ar
    23    20    21    1
    24     1    22    1
    25     1    23    1
    26     1    24    1
    27     2    25    1
    28     2    26    1
    29     4    27    1
    30     4    28    1
    31     5    29    1
    32     5    30    1
    33     6    31    1
    34     6    32    1
    35     8    33    1
    36    13    34    1
    37    16    35    1
    38    20    36    1
    39    20    37    1
    40    21    38    1
    41    21    39    1
@<TRIPOS>MOLECULE
../data/bude_mols_rdkit_confs2/molecule_51.pdb
 39 41 0 0 0
SMALL
GASTEIGER

@<TRIPOS>ATOM
      1  C1        -4.5710   -0.8500   -0.7970 C.3     1  UNL1       -0.0648
      2  C2        -3.1030   -0.5520   -0.7030 C.3     1  UNL1       -0.0502
      3  C3        -2.6220   -0.2700    0.6750 C.3     1  UNL1       -0.0294
      4  C4        -1.1200    0.0320    0.7610 C.3     1  UNL1       -0.0471
      5  C5        -0.7600    1.2240   -0.0530 C.3     1  UNL1       -0.0485
      6  C6         0.7460    1.5590   -0.0030 C.3     1  UNL1       -0.0265
      7  C7         1.5590    0.4860   -0.5700 C.ar    1  UNL1       -0.0232
      8  C8         1.0000   -0.4360   -1.4490 C.ar    1  UNL1        0.0270
      9  C9         1.8030   -1.4320   -1.9340 C.ar    1  UNL1        0.3387
     10  O1         1.2700   -2.2570   -2.7290 O.2     1  UNL1       -0.2451
     11  O2         3.0600   -1.5320   -1.5970 O.2     1  UNL1       -0.4051
     12  C10        3.6580   -0.6960   -0.7740 C.ar    1  UNL1        0.2190
     13  N1         4.9480   -0.8230   -0.4530 N.ar    1  UNL1       -0.2777
     14  C11        5.5460    0.0390    0.3820 C.ar    1  UNL1        0.3294
     15  O3         6.7570   -0.1350    0.6430 O.2     1  UNL1       -0.2466
     16  N2         4.8700    1.0460    0.9130 N.ar    1  UNL1       -0.2744
     17  C12        3.5520    1.2030    0.6070 C.ar    1  UNL1        0.2651
     18  O4         2.9350    2.1570    1.1130 O.2     1  UNL1       -0.2669
     19  C13        2.8960    0.3460   -0.2400 C.ar    1  UNL1        0.1029
     20  C14       -3.5410    0.3910    1.6300 C.3     1  UNL1       -0.0469
     21  C15       -3.1500   -1.0380    1.8460 C.3     1  UNL1       -0.0469
     22 H          -4.8317   -1.0402   -1.8172 H       1  UNL1        0.0230
     23 H          -5.1290   -0.0111   -0.4367 H       1  UNL1        0.0230
     24 H          -4.7988   -1.7111   -0.2041 H       1  UNL1        0.0230
     25 H          -2.8952    0.3030   -1.3118 H       1  UNL1        0.0268
     26 H          -2.5905   -1.4318   -1.0319 H       1  UNL1        0.0268
     27 H          -0.5733   -0.8142    0.4004 H       1  UNL1        0.0271
     28 H          -0.8745    0.2345    1.7826 H       1  UNL1        0.0271
     29 H          -1.3085    2.0659    0.3148 H       1  UNL1        0.0269
     30 H          -1.0036    1.0008   -1.0707 H       1  UNL1        0.0269
     31 H           1.0337    1.7099    1.0165 H       1  UNL1        0.0313
     32 H           0.9098    2.4429   -0.5834 H       1  UNL1        0.0313
     33 H           0.0084   -0.3706   -1.7272 H       1  UNL1        0.0692
     34 H           5.4702   -1.5640   -0.8369 H       1  UNL1        0.1733
     35 H           5.3162    1.6760    1.5239 H       1  UNL1        0.1734
     36 H          -4.5395    0.6321    1.3305 H       1  UNL1        0.0271
     37 H          -3.5019    1.2818    2.2215 H       1  UNL1        0.0271
     38 H          -2.4990   -1.3003    2.6537 H       1  UNL1        0.0271
     39 H          -3.6778   -1.9597    1.9756 H       1  UNL1        0.0271
@<TRIPOS>BOND
     1     1     2    1
     2     2     3    1
     3     3     4    1
     4     3    20    1
     5     3    21    1
     6     4     5    1
     7     5     6    1
     8     6     7    1
     9     7     8   ar
    10     7    19   ar
    11     8     9   ar
    12     9    10    2
    13     9    11   ar
    14    11    12   ar
    15    12    13   ar
    16    12    19   ar
    17    13    14   ar
    18    14    15    2
    19    14    16   ar
    20    16    17   ar
    21    17    18    2
    22    17    19   ar
    23    20    21    1
    24     1    22    1
    25     1    23    1
    26     1    24    1
    27     2    25    1
    28     2    26    1
    29     4    27    1
    30     4    28    1
    31     5    29    1
    32     5    30    1
    33     6    31    1
    34     6    32    1
    35     8    33    1
    36    13    34    1
    37    16    35    1
    38    20    36    1
    39    20    37    1
    40    21    38    1
    41    21    39    1
@<TRIPOS>MOLECULE
../data/bude_mols_rdkit_confs2/molecule_51.pdb
 39 41 0 0 0
SMALL
GASTEIGER

@<TRIPOS>ATOM
      1  C1        -4.3280    1.5270   -0.0100 C.3     1  UNL1       -0.0648
      2  C2        -4.2030    0.0550    0.1700 C.3     1  UNL1       -0.0502
      3  C3        -2.7670   -0.4090    0.4360 C.3     1  UNL1       -0.0294
      4  C4        -1.8290   -0.0770   -0.6580 C.3     1  UNL1       -0.0471
      5  C5        -0.4000   -0.5190   -0.4480 C.3     1  UNL1       -0.0485
      6  C6         0.4720   -0.1440   -1.6260 C.3     1  UNL1       -0.0265
      7  C7         1.8460   -0.5650   -1.3520 C.ar    1  UNL1       -0.0232
      8  C8         2.3400   -1.7720   -1.8200 C.ar    1  UNL1        0.0270
      9  C9         3.6020   -2.1640   -1.5180 C.ar    1  UNL1        0.3387
     10  O1         4.0610   -3.2690   -1.9430 O.2     1  UNL1       -0.2451
     11  O2         4.3320   -1.3810   -0.7830 O.2     1  UNL1       -0.4051
     12  C10        3.9620   -0.2340   -0.2990 C.ar    1  UNL1        0.2190
     13  N1         4.7710    0.5310    0.4560 N.ar    1  UNL1       -0.2777
     14  C11        4.3860    1.7240    0.9540 C.ar    1  UNL1        0.3294
     15  O3         5.2270    2.3700    1.6560 O.2     1  UNL1       -0.2466
     16  N2         3.1570    2.2000    0.7090 N.ar    1  UNL1       -0.2744
     17  C12        2.3360    1.4360   -0.0490 C.ar    1  UNL1        0.2651
     18  O4         1.2020    1.9100   -0.2600 O.2     1  UNL1       -0.2669
     19  C13        2.6690    0.2220   -0.5770 C.ar    1  UNL1        0.1029
     20  C14       -2.2850   -0.2540    1.8430 C.3     1  UNL1       -0.0469
     21  C15       -2.6450   -1.6000    1.2880 C.3     1  UNL1       -0.0469
     22 H          -5.3522    1.7785   -0.1910 H       1  UNL1        0.0230
     23 H          -3.7322    1.8363   -0.8432 H       1  UNL1        0.0230
     24 H          -3.9896    2.0245    0.8748 H       1  UNL1        0.0230
     25 H          -4.5551   -0.4259   -0.7186 H       1  UNL1        0.0268
     26 H          -4.7827   -0.2070    1.0304 H       1  UNL1        0.0268
     27 H          -1.8302    0.9858   -0.7817 H       1  UNL1        0.0271
     28 H          -2.1783   -0.6124   -1.5161 H       1  UNL1        0.0271
     29 H          -0.3789   -1.5815   -0.3234 H       1  UNL1        0.0269
     30 H          -0.0197   -0.0272    0.4228 H       1  UNL1        0.0269
     31 H           0.4433    0.9157   -1.7711 H       1  UNL1        0.0313
     32 H           0.1141   -0.6284   -2.5104 H       1  UNL1        0.0313
     33 H           1.7420   -2.3778   -2.4035 H       1  UNL1        0.0692
     34 H           5.6797    0.2074    0.6528 H       1  UNL1        0.1733
     35 H           2.8636    3.0694    1.0657 H       1  UNL1        0.1734
     36 H          -2.9093    0.2098    2.5779 H       1  UNL1        0.0271
     37 H          -1.4234    0.1729    2.3124 H       1  UNL1        0.0271
     38 H          -1.8775   -2.3195    1.0928 H       1  UNL1        0.0271
     39 H          -3.3081   -2.3853    1.5854 H       1  UNL1        0.0271
@<TRIPOS>BOND
     1     1     2    1
     2     2     3    1
     3     3     4    1
     4     3    20    1
     5     3    21    1
     6     4     5    1
     7     5     6    1
     8     6     7    1
     9     7     8   ar
    10     7    19   ar
    11     8     9   ar
    12     9    10    2
    13     9    11   ar
    14    11    12   ar
    15    12    13   ar
    16    12    19   ar
    17    13    14   ar
    18    14    15    2
    19    14    16   ar
    20    16    17   ar
    21    17    18    2
    22    17    19   ar
    23    20    21    1
    24     1    22    1
    25     1    23    1
    26     1    24    1
    27     2    25    1
    28     2    26    1
    29     4    27    1
    30     4    28    1
    31     5    29    1
    32     5    30    1
    33     6    31    1
    34     6    32    1
    35     8    33    1
    36    13    34    1
    37    16    35    1
    38    20    36    1
    39    20    37    1
    40    21    38    1
    41    21    39    1
@<TRIPOS>MOLECULE
../data/bude_mols_rdkit_confs2/molecule_51.pdb
 39 41 0 0 0
SMALL
GASTEIGER

@<TRIPOS>ATOM
      1  C1        -4.5360    0.8480    0.1640 C.3     1  UNL1       -0.0648
      2  C2        -3.4610    0.1490   -0.6270 C.3     1  UNL1       -0.0502
      3  C3        -2.3240   -0.3690    0.2330 C.3     1  UNL1       -0.0294
      4  C4        -1.1890   -1.0720   -0.4060 C.3     1  UNL1       -0.0471
      5  C5        -0.4100   -0.3930   -1.4660 C.3     1  UNL1       -0.0485
      6  C6         0.2850    0.8430   -1.0990 C.3     1  UNL1       -0.0265
      7  C7         1.3370    0.8340   -0.0960 C.ar    1  UNL1       -0.0232
      8  C8         1.0840    1.1870    1.2320 C.ar    1  UNL1        0.0270
      9  C9         2.0510    1.1350    2.2010 C.ar    1  UNL1        0.3387
     10  O1         1.8030    1.4570    3.4020 O.2     1  UNL1       -0.2451
     11  O2         3.2740    0.7520    1.9410 O.2     1  UNL1       -0.4051
     12  C10        3.5960    0.4130    0.7410 C.ar    1  UNL1        0.2190
     13  N1         4.8630    0.0150    0.4250 N.ar    1  UNL1       -0.2777
     14  C11        5.2050   -0.3300   -0.8240 C.ar    1  UNL1        0.3294
     15  O3         6.4110   -0.6890   -1.0230 O.2     1  UNL1       -0.2466
     16  N2         4.3110   -0.3010   -1.8330 N.ar    1  UNL1       -0.2744
     17  C12        3.0410    0.0860   -1.5670 C.ar    1  UNL1        0.2651
     18  O4         2.2430    0.1150   -2.4880 O.2     1  UNL1       -0.2669
     19  C13        2.6620    0.4410   -0.2980 C.ar    1  UNL1        0.1029
     20  C14       -2.3040    0.0180    1.6650 C.3     1  UNL1       -0.0469
     21  C15       -2.9420   -1.2920    1.3320 C.3     1  UNL1       -0.0469
     22 H          -5.3038    1.1870   -0.4997 H       1  UNL1        0.0230
     23 H          -4.1130    1.6859    0.6777 H       1  UNL1        0.0230
     24 H          -4.9546    0.1675    0.8758 H       1  UNL1        0.0230
     25 H          -3.0605    0.8394   -1.3396 H       1  UNL1        0.0268
     26 H          -3.9141   -0.6986   -1.0973 H       1  UNL1        0.0268
     27 H          -1.5821   -1.9694   -0.8361 H       1  UNL1        0.0271
     28 H          -0.4832   -1.1822    0.3907 H       1  UNL1        0.0271
     29 H          -1.0858   -0.1581   -2.2616 H       1  UNL1        0.0269
     30 H           0.3684   -1.0818   -1.7201 H       1  UNL1        0.0269
     31 H          -0.4641    1.5225   -0.7498 H       1  UNL1        0.0313
     32 H           0.8126    1.0946   -1.9952 H       1  UNL1        0.0313
     33 H           0.1350    1.4979    1.4922 H       1  UNL1        0.0692
     34 H           5.5446   -0.0196    1.1345 H       1  UNL1        0.1733
     35 H           4.5767   -0.5564   -2.7459 H       1  UNL1        0.1734
     36 H          -2.9148    0.8307    1.9987 H       1  UNL1        0.0271
     37 H          -1.5258    0.3088    2.3393 H       1  UNL1        0.0271
     38 H          -2.4619   -2.2102    1.5991 H       1  UNL1        0.0271
     39 H          -3.8943   -1.7483    1.5050 H       1  UNL1        0.0271
@<TRIPOS>BOND
     1     1     2    1
     2     2     3    1
     3     3     4    1
     4     3    20    1
     5     3    21    1
     6     4     5    1
     7     5     6    1
     8     6     7    1
     9     7     8   ar
    10     7    19   ar
    11     8     9   ar
    12     9    10    2
    13     9    11   ar
    14    11    12   ar
    15    12    13   ar
    16    12    19   ar
    17    13    14   ar
    18    14    15    2
    19    14    16   ar
    20    16    17   ar
    21    17    18    2
    22    17    19   ar
    23    20    21    1
    24     1    22    1
    25     1    23    1
    26     1    24    1
    27     2    25    1
    28     2    26    1
    29     4    27    1
    30     4    28    1
    31     5    29    1
    32     5    30    1
    33     6    31    1
    34     6    32    1
    35     8    33    1
    36    13    34    1
    37    16    35    1
    38    20    36    1
    39    20    37    1
    40    21    38    1
    41    21    39    1
@<TRIPOS>MOLECULE
../data/bude_mols_rdkit_confs2/molecule_51.pdb
 39 41 0 0 0
SMALL
GASTEIGER

@<TRIPOS>ATOM
      1  C1        -4.5120    1.6100   -0.4080 C.3     1  UNL1       -0.0648
      2  C2        -4.0240    0.5160   -1.3230 C.3     1  UNL1       -0.0502
      3  C3        -2.8200   -0.2180   -0.7100 C.3     1  UNL1       -0.0294
      4  C4        -1.6820    0.7080   -0.4670 C.3     1  UNL1       -0.0471
      5  C5        -0.4590    0.0140    0.1380 C.3     1  UNL1       -0.0485
      6  C6         0.6010    1.0360    0.3350 C.3     1  UNL1       -0.0265
      7  C7         1.8740    0.5530    0.8910 C.ar    1  UNL1       -0.0232
      8  C8         2.1370    0.6270    2.2710 C.ar    1  UNL1        0.0270
      9  C9         3.2960    0.1390    2.8070 C.ar    1  UNL1        0.3387
     10  O1         3.4860    0.2260    4.0360 O.2     1  UNL1       -0.2451
     11  O2         4.1830   -0.4070    2.0370 O.2     1  UNL1       -0.4051
     12  C10        4.0480   -0.5300    0.7380 C.ar    1  UNL1        0.2190
     13  N1         5.0200   -1.1090   -0.0050 N.ar    1  UNL1       -0.2777
     14  C11        4.8160   -1.1970   -1.3210 C.ar    1  UNL1        0.3294
     15  O3         5.7270   -1.7400   -2.0100 O.2     1  UNL1       -0.2466
     16  N2         3.7150   -0.7440   -1.9240 N.ar    1  UNL1       -0.2744
     17  C12        2.7290   -0.1620   -1.2100 C.ar    1  UNL1        0.2651
     18  O4         1.6930    0.2700   -1.7540 O.2     1  UNL1       -0.2669
     19  C13        2.8720   -0.0420    0.1470 C.ar    1  UNL1        0.1029
     20  C14       -2.6690   -1.6320   -1.0530 C.3     1  UNL1       -0.0469
     21  C15       -3.1640   -1.2590    0.3030 C.3     1  UNL1       -0.0469
     22 H          -5.3483    2.1039   -0.8570 H       1  UNL1        0.0230
     23 H          -3.7252    2.3168   -0.2459 H       1  UNL1        0.0230
     24 H          -4.8089    1.1858    0.5284 H       1  UNL1        0.0230
     25 H          -3.7325    0.9461   -2.2584 H       1  UNL1        0.0268
     26 H          -4.8166   -0.1885   -1.4654 H       1  UNL1        0.0268
     27 H          -2.0052    1.4750    0.2054 H       1  UNL1        0.0271
     28 H          -1.3860    1.1042   -1.4158 H       1  UNL1        0.0271
     29 H          -0.1089   -0.7483   -0.5263 H       1  UNL1        0.0269
     30 H          -0.7148   -0.4398    1.0726 H       1  UNL1        0.0269
     31 H           0.2164    1.7812    0.9996 H       1  UNL1        0.0313
     32 H           0.8354    1.3976   -0.6444 H       1  UNL1        0.0313
     33 H           1.4377    1.0604    2.8941 H       1  UNL1        0.0692
     34 H           5.8449   -1.4517    0.4090 H       1  UNL1        0.1733
     35 H           3.6212   -0.8354   -2.8998 H       1  UNL1        0.1734
     36 H          -1.6913   -2.0515   -1.1668 H       1  UNL1        0.0271
     37 H          -3.0324   -2.2582   -1.8408 H       1  UNL1        0.0271
     38 H          -4.1853   -1.4336    0.5702 H       1  UNL1        0.0271
     39 H          -2.8693   -1.4726    1.3092 H       1  UNL1        0.0271
@<TRIPOS>BOND
     1     1     2    1
     2     2     3    1
     3     3     4    1
     4     3    20    1
     5     3    21    1
     6     4     5    1
     7     5     6    1
     8     6     7    1
     9     7     8   ar
    10     7    19   ar
    11     8     9   ar
    12     9    10    2
    13     9    11   ar
    14    11    12   ar
    15    12    13   ar
    16    12    19   ar
    17    13    14   ar
    18    14    15    2
    19    14    16   ar
    20    16    17   ar
    21    17    18    2
    22    17    19   ar
    23    20    21    1
    24     1    22    1
    25     1    23    1
    26     1    24    1
    27     2    25    1
    28     2    26    1
    29     4    27    1
    30     4    28    1
    31     5    29    1
    32     5    30    1
    33     6    31    1
    34     6    32    1
    35     8    33    1
    36    13    34    1
    37    16    35    1
    38    20    36    1
    39    20    37    1
    40    21    38    1
    41    21    39    1
@<TRIPOS>MOLECULE
../data/bude_mols_rdkit_confs2/molecule_51.pdb
 39 41 0 0 0
SMALL
GASTEIGER

@<TRIPOS>ATOM
      1  C1        -5.5130    0.4980   -0.1780 C.3     1  UNL1       -0.0648
      2  C2        -4.1930    0.9730   -0.7080 C.3     1  UNL1       -0.0502
      3  C3        -2.9970    0.2640   -0.0860 C.3     1  UNL1       -0.0294
      4  C4        -1.6660    0.7180   -0.5970 C.3     1  UNL1       -0.0471
      5  C5        -0.5130    0.0000    0.0390 C.3     1  UNL1       -0.0485
      6  C6         0.8170    0.5120   -0.5460 C.3     1  UNL1       -0.0265
      7  C7         1.8980   -0.2400    0.1350 C.ar    1  UNL1       -0.0232
      8  C8         1.6560   -1.2210    1.0730 C.ar    1  UNL1        0.0270
      9  C9         2.6590   -1.9180    1.7000 C.ar    1  UNL1        0.3387
     10  O1         2.4040   -2.8230    2.5660 O.2     1  UNL1       -0.2451
     11  O2         3.9000   -1.6320    1.3870 O.2     1  UNL1       -0.4051
     12  C10        4.2240   -0.7130    0.5050 C.ar    1  UNL1        0.2190
     13  N1         5.5090   -0.4350    0.1990 N.ar    1  UNL1       -0.2777
     14  C11        5.8740    0.4960   -0.6960 C.ar    1  UNL1        0.3294
     15  O3         7.0890    0.7310   -0.9590 O.2     1  UNL1       -0.2466
     16  N2         4.9200    1.1990   -1.3290 N.ar    1  UNL1       -0.2744
     17  C12        3.6010    0.9630   -1.0610 C.ar    1  UNL1        0.2651
     18  O4         2.7210    1.6090   -1.6440 O.2     1  UNL1       -0.2669
     19  C13        3.2420    0.0060   -0.1440 C.ar    1  UNL1        0.1029
     20  C14       -3.2310   -1.2490    0.0340 C.3     1  UNL1       -0.0469
     21  C15       -3.0630   -0.3790    1.2260 C.3     1  UNL1       -0.0469
     22 H          -6.3041    1.0364   -0.6566 H       1  UNL1        0.0230
     23 H          -5.5548    0.6663    0.8779 H       1  UNL1        0.0230
     24 H          -5.6219   -0.5477   -0.3771 H       1  UNL1        0.0230
     25 H          -4.1059    2.0209   -0.5099 H       1  UNL1        0.0268
     26 H          -4.1779    0.7550   -1.7554 H       1  UNL1        0.0268
     27 H          -1.5651    1.7649   -0.4001 H       1  UNL1        0.0271
     28 H          -1.6367    0.5015   -1.6445 H       1  UNL1        0.0271
     29 H          -0.6020   -1.0494   -0.1498 H       1  UNL1        0.0269
     30 H          -0.5253    0.1825    1.0932 H       1  UNL1        0.0269
     31 H           0.9228    1.5603   -0.3596 H       1  UNL1        0.0313
     32 H           0.8539    0.3655   -1.6053 H       1  UNL1        0.0313
     33 H           0.6772   -1.4412    1.3146 H       1  UNL1        0.0692
     34 H           6.2170   -0.9429    0.6573 H       1  UNL1        0.1733
     35 H           5.1719    1.8860   -1.9877 H       1  UNL1        0.1734
     36 H          -2.4619   -1.9388   -0.2446 H       1  UNL1        0.0271
     37 H          -3.9680   -1.9426   -0.3135 H       1  UNL1        0.0271
     38 H          -3.9012   -0.1909    1.8639 H       1  UNL1        0.0271
     39 H          -2.4095   -0.4018    2.0730 H       1  UNL1        0.0271
@<TRIPOS>BOND
     1     1     2    1
     2     2     3    1
     3     3     4    1
     4     3    20    1
     5     3    21    1
     6     4     5    1
     7     5     6    1
     8     6     7    1
     9     7     8   ar
    10     7    19   ar
    11     8     9   ar
    12     9    10    2
    13     9    11   ar
    14    11    12   ar
    15    12    13   ar
    16    12    19   ar
    17    13    14   ar
    18    14    15    2
    19    14    16   ar
    20    16    17   ar
    21    17    18    2
    22    17    19   ar
    23    20    21    1
    24     1    22    1
    25     1    23    1
    26     1    24    1
    27     2    25    1
    28     2    26    1
    29     4    27    1
    30     4    28    1
    31     5    29    1
    32     5    30    1
    33     6    31    1
    34     6    32    1
    35     8    33    1
    36    13    34    1
    37    16    35    1
    38    20    36    1
    39    20    37    1
    40    21    38    1
    41    21    39    1
@<TRIPOS>MOLECULE
../data/bude_mols_rdkit_confs2/molecule_51.pdb
 39 41 0 0 0
SMALL
GASTEIGER

@<TRIPOS>ATOM
      1  C1         3.0000    1.0730    1.6220 C.3     1  UNL1       -0.0648
      2  C2         1.8730    0.4470    0.8120 C.3     1  UNL1       -0.0502
      3  C3         2.3060   -0.6160   -0.1330 C.3     1  UNL1       -0.0294
      4  C4         1.3730   -1.3780   -1.0080 C.3     1  UNL1       -0.0471
      5  C5         0.5470   -0.7360   -2.0160 C.3     1  UNL1       -0.0485
      6  C6        -0.4970    0.2800   -1.6220 C.3     1  UNL1       -0.0265
      7  C7        -1.5450   -0.2390   -0.7350 C.ar    1  UNL1       -0.0232
      8  C8        -1.7950   -1.6040   -0.6150 C.ar    1  UNL1        0.0270
      9  C9        -2.7750   -2.0810    0.2280 C.ar    1  UNL1        0.3387
     10  O1        -2.9550   -3.3440    0.2950 O.2     1  UNL1       -0.2451
     11  O2        -3.4950   -1.2570    0.9340 O.2     1  UNL1       -0.4051
     12  C10       -3.3080    0.0350    0.8620 C.ar    1  UNL1        0.2190
     13  N1        -4.0800    0.8430    1.6050 N.ar    1  UNL1       -0.2777
     14  C11       -3.9640    2.1780    1.5910 C.ar    1  UNL1        0.3294
     15  O3        -4.7040    2.9300    2.3030 O.2     1  UNL1       -0.2466
     16  N2        -3.0340    2.7150    0.7950 N.ar    1  UNL1       -0.2744
     17  C12       -2.2060    1.9700    0.0060 C.ar    1  UNL1        0.2651
     18  O4        -1.3590    2.5400   -0.7170 O.2     1  UNL1       -0.2669
     19  C13       -2.3310    0.5990    0.0290 C.ar    1  UNL1        0.1029
     20  C14        3.7900   -0.6340   -0.5540 C.3     1  UNL1       -0.0469
     21  C15        3.3690   -1.5550    0.5000 C.3     1  UNL1       -0.0469
     22 H           2.5987    1.8230    2.2711 H       1  UNL1        0.0230
     23 H           3.7111    1.5190    0.9584 H       1  UNL1        0.0230
     24 H           3.4823    0.3170    2.2057 H       1  UNL1        0.0230
     25 H           1.3975    1.2218    0.2476 H       1  UNL1        0.0268
     26 H           1.2179   -0.0219    1.5162 H       1  UNL1        0.0268
     27 H           0.6985   -1.8865   -0.3512 H       1  UNL1        0.0271
     28 H           2.0517   -1.9454   -1.6100 H       1  UNL1        0.0271
     29 H           0.0324   -1.5185   -2.5335 H       1  UNL1        0.0269
     30 H           1.2536   -0.1513   -2.5672 H       1  UNL1        0.0269
     31 H          -0.9633    0.6435   -2.5138 H       1  UNL1        0.0313
     32 H           0.0133    1.0456   -1.0758 H       1  UNL1        0.0313
     33 H          -1.2351   -2.2713   -1.1684 H       1  UNL1        0.0692
     34 H          -4.7625    0.4366    2.1867 H       1  UNL1        0.1733
     35 H          -2.9418    3.6950    0.7770 H       1  UNL1        0.1734
     36 H           4.4191    0.1966   -0.3105 H       1  UNL1        0.0271
     37 H           4.2966   -0.7548   -1.4887 H       1  UNL1        0.0271
     38 H           3.3333   -2.6062    0.3036 H       1  UNL1        0.0271
     39 H           3.6966   -1.7473    1.5003 H       1  UNL1        0.0271
@<TRIPOS>BOND
     1     1     2    1
     2     2     3    1
     3     3     4    1
     4     3    20    1
     5     3    21    1
     6     4     5    1
     7     5     6    1
     8     6     7    1
     9     7     8   ar
    10     7    19   ar
    11     8     9   ar
    12     9    10    2
    13     9    11   ar
    14    11    12   ar
    15    12    13   ar
    16    12    19   ar
    17    13    14   ar
    18    14    15    2
    19    14    16   ar
    20    16    17   ar
    21    17    18    2
    22    17    19   ar
    23    20    21    1
    24     1    22    1
    25     1    23    1
    26     1    24    1
    27     2    25    1
    28     2    26    1
    29     4    27    1
    30     4    28    1
    31     5    29    1
    32     5    30    1
    33     6    31    1
    34     6    32    1
    35     8    33    1
    36    13    34    1
    37    16    35    1
    38    20    36    1
    39    20    37    1
    40    21    38    1
    41    21    39    1
@<TRIPOS>MOLECULE
../data/bude_mols_rdkit_confs2/molecule_51.pdb
 39 41 0 0 0
SMALL
GASTEIGER

@<TRIPOS>ATOM
      1  C1        -1.9700    2.3300   -0.0160 C.3     1  UNL1       -0.0648
      2  C2        -2.8390    1.4170    0.8230 C.3     1  UNL1       -0.0502
      3  C3        -2.5080   -0.0000    0.4250 C.3     1  UNL1       -0.0294
      4  C4        -1.0660   -0.3820    0.6370 C.3     1  UNL1       -0.0471
      5  C5        -0.7280   -1.7570    0.2610 C.3     1  UNL1       -0.0485
      6  C6         0.7210   -2.1930    0.3830 C.3     1  UNL1       -0.0265
      7  C7         1.6160   -1.3680   -0.4230 C.ar    1  UNL1       -0.0232
      8  C8         1.7260   -1.6370   -1.7970 C.ar    1  UNL1        0.0270
      9  C9         2.4490   -0.7880   -2.5950 C.ar    1  UNL1        0.3387
     10  O1         2.5500   -1.0310   -3.8400 O.2     1  UNL1       -0.2451
     11  O2         3.0550    0.2780   -2.1430 O.2     1  UNL1       -0.4051
     12  C10        2.9540    0.5330   -0.8370 C.ar    1  UNL1        0.2190
     13  N1         3.5960    1.6290   -0.4170 N.ar    1  UNL1       -0.2777
     14  C11        3.5930    2.0070    0.8840 C.ar    1  UNL1        0.3294
     15  O3         4.2090    3.0490    1.2550 O.2     1  UNL1       -0.2466
     16  N2         2.9180    1.2380    1.7470 N.ar    1  UNL1       -0.2744
     17  C12        2.2590    0.1300    1.3630 C.ar    1  UNL1        0.2651
     18  O4         1.6630   -0.5390    2.2110 O.2     1  UNL1       -0.2669
     19  C13        2.2450   -0.2740    0.0300 C.ar    1  UNL1        0.1029
     20  C14       -3.5860   -0.9940    0.3520 C.3     1  UNL1       -0.0469
     21  C15       -3.0780   -0.3790   -0.9220 C.3     1  UNL1       -0.0469
     22 H          -2.1752    3.3492    0.2370 H       1  UNL1        0.0230
     23 H          -2.1816    2.1703   -1.0526 H       1  UNL1        0.0230
     24 H          -0.9392    2.1157    0.1748 H       1  UNL1        0.0230
     25 H          -3.8727    1.6191    0.6346 H       1  UNL1        0.0268
     26 H          -2.6577    1.5717    1.8661 H       1  UNL1        0.0268
     27 H          -0.8385   -0.2563    1.6749 H       1  UNL1        0.0271
     28 H          -0.4911    0.2532   -0.0040 H       1  UNL1        0.0271
     29 H          -1.0144   -1.8868   -0.7618 H       1  UNL1        0.0269
     30 H          -1.2507   -2.3644    0.9701 H       1  UNL1        0.0269
     31 H           0.8034   -3.2092    0.0581 H       1  UNL1        0.0313
     32 H           1.0104   -2.0864    1.4076 H       1  UNL1        0.0313
     33 H           1.2663   -2.4671   -2.2029 H       1  UNL1        0.0692
     34 H           4.0850    2.1770   -1.0726 H       1  UNL1        0.1733
     35 H           2.9033    1.4927    2.6979 H       1  UNL1        0.1734
     36 H          -4.5635   -0.7459    0.7096 H       1  UNL1        0.0271
     37 H          -3.7068   -1.9969    0.7048 H       1  UNL1        0.0271
     38 H          -2.4990   -0.9607   -1.6085 H       1  UNL1        0.0271
     39 H          -3.5134    0.1477   -1.7454 H       1  UNL1        0.0271
@<TRIPOS>BOND
     1     1     2    1
     2     2     3    1
     3     3     4    1
     4     3    20    1
     5     3    21    1
     6     4     5    1
     7     5     6    1
     8     6     7    1
     9     7     8   ar
    10     7    19   ar
    11     8     9   ar
    12     9    10    2
    13     9    11   ar
    14    11    12   ar
    15    12    13   ar
    16    12    19   ar
    17    13    14   ar
    18    14    15    2
    19    14    16   ar
    20    16    17   ar
    21    17    18    2
    22    17    19   ar
    23    20    21    1
    24     1    22    1
    25     1    23    1
    26     1    24    1
    27     2    25    1
    28     2    26    1
    29     4    27    1
    30     4    28    1
    31     5    29    1
    32     5    30    1
    33     6    31    1
    34     6    32    1
    35     8    33    1
    36    13    34    1
    37    16    35    1
    38    20    36    1
    39    20    37    1
    40    21    38    1
    41    21    39    1
@<TRIPOS>MOLECULE
../data/bude_mols_rdkit_confs2/molecule_51.pdb
 39 41 0 0 0
SMALL
GASTEIGER

@<TRIPOS>ATOM
      1  C1        -2.2800    0.6990   -1.9570 C.3     1  UNL1       -0.0648
      2  C2        -3.0490    0.0960   -0.7950 C.3     1  UNL1       -0.0502
      3  C3        -2.4580    0.4810    0.5310 C.3     1  UNL1       -0.0294
      4  C4        -0.9920    0.0510    0.7560 C.3     1  UNL1       -0.0471
      5  C5        -0.8700   -1.4100    0.6680 C.3     1  UNL1       -0.0485
      6  C6         0.5220   -1.9610    0.8170 C.3     1  UNL1       -0.0265
      7  C7         1.5010   -1.4790   -0.1460 C.ar    1  UNL1       -0.0232
      8  C8         1.5370   -2.0660   -1.4310 C.ar    1  UNL1        0.0270
      9  C9         2.3500   -1.5400   -2.3750 C.ar    1  UNL1        0.3387
     10  O1         2.3540   -2.0960   -3.5220 O.2     1  UNL1       -0.2451
     11  O2         3.1230   -0.5080   -2.1840 O.2     1  UNL1       -0.4051
     12  C10        3.1120    0.0540   -0.9990 C.ar    1  UNL1        0.2190
     13  N1         3.9050    1.1240   -0.7520 N.ar    1  UNL1       -0.2777
     14  C11        3.9720    1.7600    0.4270 C.ar    1  UNL1        0.3294
     15  O3         4.7270    2.7590    0.6140 O.2     1  UNL1       -0.2466
     16  N2         3.2120    1.3210    1.4390 N.ar    1  UNL1       -0.2744
     17  C12        2.3840    0.2490    1.2730 C.ar    1  UNL1        0.2651
     18  O4         1.6970   -0.1430    2.2310 O.2     1  UNL1       -0.2669
     19  C13        2.3080   -0.4040    0.0630 C.ar    1  UNL1        0.1029
     20  C14       -3.3760    0.6540    1.6590 C.3     1  UNL1       -0.0469
     21  C15       -2.8200    1.8770    1.0260 C.3     1  UNL1       -0.0469
     22 H          -2.7339    0.3999   -2.8786 H       1  UNL1        0.0230
     23 H          -1.2668    0.3559   -1.9306 H       1  UNL1        0.0230
     24 H          -2.2973    1.7661   -1.8807 H       1  UNL1        0.0230
     25 H          -3.0309   -0.9701   -0.8848 H       1  UNL1        0.0268
     26 H          -4.0506    0.4705   -0.8317 H       1  UNL1        0.0268
     27 H          -0.6742    0.3740    1.7253 H       1  UNL1        0.0271
     28 H          -0.3786    0.4975    0.0015 H       1  UNL1        0.0271
     29 H          -1.2426   -1.7135   -0.2880 H       1  UNL1        0.0269
     30 H          -1.4264   -1.7984    1.4953 H       1  UNL1        0.0269
     31 H           0.4655   -3.0253    0.7228 H       1  UNL1        0.0313
     32 H           0.8660   -1.6261    1.7732 H       1  UNL1        0.0313
     33 H           0.9496   -2.8867   -1.6465 H       1  UNL1        0.0692
     34 H           4.4696    1.4569   -1.4866 H       1  UNL1        0.1733
     35 H           3.2512    1.7762    2.3111 H       1  UNL1        0.1734
     36 H          -3.0614    0.3786    2.6439 H       1  UNL1        0.0271
     37 H          -4.3673    0.3111    1.8702 H       1  UNL1        0.0271
     38 H          -3.4474    2.5127    0.4369 H       1  UNL1        0.0271
     39 H          -2.2775    2.7356    1.3627 H       1  UNL1        0.0271
@<TRIPOS>BOND
     1     1     2    1
     2     2     3    1
     3     3     4    1
     4     3    20    1
     5     3    21    1
     6     4     5    1
     7     5     6    1
     8     6     7    1
     9     7     8   ar
    10     7    19   ar
    11     8     9   ar
    12     9    10    2
    13     9    11   ar
    14    11    12   ar
    15    12    13   ar
    16    12    19   ar
    17    13    14   ar
    18    14    15    2
    19    14    16   ar
    20    16    17   ar
    21    17    18    2
    22    17    19   ar
    23    20    21    1
    24     1    22    1
    25     1    23    1
    26     1    24    1
    27     2    25    1
    28     2    26    1
    29     4    27    1
    30     4    28    1
    31     5    29    1
    32     5    30    1
    33     6    31    1
    34     6    32    1
    35     8    33    1
    36    13    34    1
    37    16    35    1
    38    20    36    1
    39    20    37    1
    40    21    38    1
    41    21    39    1
@<TRIPOS>MOLECULE
../data/bude_mols_rdkit_confs2/molecule_51.pdb
 39 41 0 0 0
SMALL
GASTEIGER

@<TRIPOS>ATOM
      1  C1        -5.1330    0.1700    0.8720 C.3     1  UNL1       -0.0648
      2  C2        -3.9960   -0.7960    0.8330 C.3     1  UNL1       -0.0502
      3  C3        -2.7770   -0.0900    0.2530 C.3     1  UNL1       -0.0294
      4  C4        -1.5970   -1.0030    0.1670 C.3     1  UNL1       -0.0471
      5  C5        -0.3490   -0.4220   -0.3950 C.3     1  UNL1       -0.0485
      6  C6         0.7870   -1.4380   -0.4380 C.3     1  UNL1       -0.0265
      7  C7         2.0290   -0.8470   -0.9610 C.ar    1  UNL1       -0.0232
      8  C8         2.3210   -1.0300   -2.3220 C.ar    1  UNL1        0.0270
      9  C9         3.4540   -0.4450   -2.8340 C.ar    1  UNL1        0.3387
     10  O1         3.7160   -0.6070   -4.0460 O.2     1  UNL1       -0.2451
     11  O2         4.2410    0.2640   -2.0730 O.2     1  UNL1       -0.4051
     12  C10        4.0110    0.4580   -0.8100 C.ar    1  UNL1        0.2190
     13  N1         4.8640    1.1970   -0.0840 N.ar    1  UNL1       -0.2777
     14  C11        4.6340    1.3990    1.2250 C.ar    1  UNL1        0.3294
     15  O3         5.4650    2.1020    1.8710 O.2     1  UNL1       -0.2466
     16  N2         3.5560    0.8720    1.8320 N.ar    1  UNL1       -0.2744
     17  C12        2.6680    0.1210    1.1400 C.ar    1  UNL1        0.2651
     18  O4         1.6680   -0.3690    1.7140 O.2     1  UNL1       -0.2669
     19  C13        2.8740   -0.1030   -0.1990 C.ar    1  UNL1        0.1029
     20  C14       -2.4160    1.2460    0.9440 C.3     1  UNL1       -0.0469
     21  C15       -2.9450    1.1550   -0.4680 C.3     1  UNL1       -0.0469
     22 H          -5.9974   -0.3128    1.2778 H       1  UNL1        0.0230
     23 H          -5.3467    0.5095   -0.1199 H       1  UNL1        0.0230
     24 H          -4.8700    1.0058    1.4861 H       1  UNL1        0.0230
     25 H          -4.2547   -1.6323    0.2177 H       1  UNL1        0.0268
     26 H          -3.7798   -1.1457    1.8209 H       1  UNL1        0.0268
     27 H          -1.8735   -1.8349   -0.4466 H       1  UNL1        0.0271
     28 H          -1.3607   -1.2569    1.1792 H       1  UNL1        0.0271
     29 H          -0.0491    0.4056    0.2133 H       1  UNL1        0.0269
     30 H          -0.5524   -0.1119   -1.3987 H       1  UNL1        0.0269
     31 H           0.4990   -2.2531   -1.0685 H       1  UNL1        0.0313
     32 H           0.9726   -1.7719    0.5615 H       1  UNL1        0.0313
     33 H           1.6987   -1.5912   -2.9243 H       1  UNL1        0.0692
     34 H           5.6589    1.5915   -0.5104 H       1  UNL1        0.1733
     35 H           3.4109    1.0346    2.7921 H       1  UNL1        0.1734
     36 H          -1.3941    1.5054    1.1265 H       1  UNL1        0.0271
     37 H          -2.6924    1.7530    1.8448 H       1  UNL1        0.0271
     38 H          -3.9311    1.5092   -0.6849 H       1  UNL1        0.0271
     39 H          -2.5951    1.5148   -1.4130 H       1  UNL1        0.0271
@<TRIPOS>BOND
     1     1     2    1
     2     2     3    1
     3     3     4    1
     4     3    20    1
     5     3    21    1
     6     4     5    1
     7     5     6    1
     8     6     7    1
     9     7     8   ar
    10     7    19   ar
    11     8     9   ar
    12     9    10    2
    13     9    11   ar
    14    11    12   ar
    15    12    13   ar
    16    12    19   ar
    17    13    14   ar
    18    14    15    2
    19    14    16   ar
    20    16    17   ar
    21    17    18    2
    22    17    19   ar
    23    20    21    1
    24     1    22    1
    25     1    23    1
    26     1    24    1
    27     2    25    1
    28     2    26    1
    29     4    27    1
    30     4    28    1
    31     5    29    1
    32     5    30    1
    33     6    31    1
    34     6    32    1
    35     8    33    1
    36    13    34    1
    37    16    35    1
    38    20    36    1
    39    20    37    1
    40    21    38    1
    41    21    39    1
@<TRIPOS>MOLECULE
../data/bude_mols_rdkit_confs2/molecule_51.pdb
 39 41 0 0 0
SMALL
GASTEIGER

@<TRIPOS>ATOM
      1  C1         4.4720   -1.1430   -1.2660 C.3     1  UNL1       -0.0648
      2  C2         3.2570   -1.1250   -0.4040 C.3     1  UNL1       -0.0502
      3  C3         2.8250    0.2280    0.0460 C.3     1  UNL1       -0.0294
      4  C4         1.6120    0.2860    0.9080 C.3     1  UNL1       -0.0471
      5  C5         0.3700   -0.2660    0.2810 C.3     1  UNL1       -0.0485
      6  C6        -0.7240   -0.1100    1.2950 C.3     1  UNL1       -0.0265
      7  C7        -2.0480   -0.5760    0.8820 C.ar    1  UNL1       -0.0232
      8  C8        -2.5150   -1.8530    1.2320 C.ar    1  UNL1        0.0270
      9  C9        -3.7430   -2.2980    0.8060 C.ar    1  UNL1        0.3387
     10  O1        -4.1780   -3.4360    1.1070 O.2     1  UNL1       -0.2451
     11  O2        -4.4930   -1.5290    0.0670 O.2     1  UNL1       -0.4051
     12  C10       -4.1560   -0.3160   -0.3190 C.ar    1  UNL1        0.2190
     13  N1        -4.9920    0.4100   -1.0810 N.ar    1  UNL1       -0.2777
     14  C11       -4.6170    1.6350   -1.4480 C.ar    1  UNL1        0.3294
     15  O3        -5.3550    2.3890   -2.1730 O.2     1  UNL1       -0.2466
     16  N2        -3.4320    2.1360   -1.0670 N.ar    1  UNL1       -0.2744
     17  C12       -2.5740    1.4250   -0.3010 C.ar    1  UNL1        0.2651
     18  O4        -1.4680    1.9050    0.0520 O.2     1  UNL1       -0.2669
     19  C13       -2.9090    0.1680    0.0990 C.ar    1  UNL1        0.1029
     20  C14        3.2420    1.4820   -0.6200 C.3     1  UNL1       -0.0469
     21  C15        4.0180    1.0710    0.5960 C.3     1  UNL1       -0.0469
     22 H           4.7024   -2.1522   -1.5366 H       1  UNL1        0.0230
     23 H           5.2960   -0.7205   -0.7298 H       1  UNL1        0.0230
     24 H           4.2902   -0.5691   -2.1506 H       1  UNL1        0.0230
     25 H           3.4578   -1.7156    0.4653 H       1  UNL1        0.0268
     26 H           2.4588   -1.5100   -1.0037 H       1  UNL1        0.0268
     27 H           1.4310    1.3101    1.1597 H       1  UNL1        0.0271
     28 H           1.8180   -0.3278    1.7599 H       1  UNL1        0.0271
     29 H           0.5057   -1.2995    0.0396 H       1  UNL1        0.0269
     30 H           0.1329    0.2488   -0.6266 H       1  UNL1        0.0269
     31 H          -0.8025    0.9296    1.5356 H       1  UNL1        0.0313
     32 H          -0.4436   -0.7288    2.1216 H       1  UNL1        0.0313
     33 H          -1.9272   -2.4664    1.8179 H       1  UNL1        0.0692
     34 H          -5.8621    0.0449   -1.3618 H       1  UNL1        0.1733
     35 H          -3.1809    3.0442   -1.3524 H       1  UNL1        0.1734
     36 H           2.6048    2.3402   -0.5724 H       1  UNL1        0.0271
     37 H           3.5189    1.7276   -1.6239 H       1  UNL1        0.0271
     38 H           5.0220    0.7133    0.5015 H       1  UNL1        0.0271
     39 H           4.2750    1.5203    1.5325 H       1  UNL1        0.0271
@<TRIPOS>BOND
     1     1     2    1
     2     2     3    1
     3     3     4    1
     4     3    20    1
     5     3    21    1
     6     4     5    1
     7     5     6    1
     8     6     7    1
     9     7     8   ar
    10     7    19   ar
    11     8     9   ar
    12     9    10    2
    13     9    11   ar
    14    11    12   ar
    15    12    13   ar
    16    12    19   ar
    17    13    14   ar
    18    14    15    2
    19    14    16   ar
    20    16    17   ar
    21    17    18    2
    22    17    19   ar
    23    20    21    1
    24     1    22    1
    25     1    23    1
    26     1    24    1
    27     2    25    1
    28     2    26    1
    29     4    27    1
    30     4    28    1
    31     5    29    1
    32     5    30    1
    33     6    31    1
    34     6    32    1
    35     8    33    1
    36    13    34    1
    37    16    35    1
    38    20    36    1
    39    20    37    1
    40    21    38    1
    41    21    39    1
@<TRIPOS>MOLECULE
../data/bude_mols_rdkit_confs2/molecule_51.pdb
 39 41 0 0 0
SMALL
GASTEIGER

@<TRIPOS>ATOM
      1  C1        -4.2200   -1.6070    0.5510 C.3     1  UNL1       -0.0648
      2  C2        -2.8220   -1.0180    0.7980 C.3     1  UNL1       -0.0502
      3  C3        -2.7640    0.4510    0.4810 C.3     1  UNL1       -0.0294
      4  C4        -1.4980    1.1810    0.6940 C.3     1  UNL1       -0.0471
      5  C5        -0.2470    0.8960    0.0010 C.3     1  UNL1       -0.0485
      6  C6         0.3300   -0.4420    0.1850 C.3     1  UNL1       -0.0265
      7  C7         1.6830   -0.5900   -0.4500 C.ar    1  UNL1       -0.0232
      8  C8         1.8550   -1.1260   -1.7050 C.ar    1  UNL1        0.0270
      9  C9         3.0870   -1.2190   -2.3090 C.ar    1  UNL1        0.3387
     10  O1         3.2000   -1.7250   -3.4800 O.2     1  UNL1       -0.2451
     11  O2         4.1450   -0.7880   -1.6790 O.2     1  UNL1       -0.4051
     12  C10        4.0570   -0.2660   -0.4790 C.ar    1  UNL1        0.2190
     13  N1         5.1490    0.1790    0.1780 N.ar    1  UNL1       -0.2777
     14  C11        5.0890    0.7140    1.4080 C.ar    1  UNL1        0.3294
     15  O3         6.1660    1.1130    1.9660 O.2     1  UNL1       -0.2466
     16  N2         3.9200    0.8270    2.0410 N.ar    1  UNL1       -0.2744
     17  C12        2.7890    0.3950    1.4260 C.ar    1  UNL1        0.2651
     18  O4         1.6730    0.4940    2.0180 O.2     1  UNL1       -0.2669
     19  C13        2.8360   -0.1440    0.1860 C.ar    1  UNL1        0.1029
     20  C14       -3.6420    0.8260   -0.6890 C.3     1  UNL1       -0.0469
     21  C15       -4.0120    1.2700    0.6570 C.3     1  UNL1       -0.0469
     22 H          -4.2146   -2.6502    0.7888 H       1  UNL1        0.0230
     23 H          -4.4852   -1.4770   -0.4774 H       1  UNL1        0.0230
     24 H          -4.9334   -1.1038    1.1697 H       1  UNL1        0.0230
     25 H          -2.1164   -1.5327    0.1798 H       1  UNL1        0.0268
     26 H          -2.5908   -1.1410    1.8354 H       1  UNL1        0.0268
     27 H          -1.2786    1.0758    1.7360 H       1  UNL1        0.0271
     28 H          -1.7458    2.1304    0.2672 H       1  UNL1        0.0271
     29 H           0.4772    1.6083    0.3371 H       1  UNL1        0.0269
     30 H          -0.4881    0.9527   -1.0399 H       1  UNL1        0.0269
     31 H          -0.3316   -1.1615   -0.2505 H       1  UNL1        0.0313
     32 H           0.4515   -0.5963    1.2368 H       1  UNL1        0.0313
     33 H           1.0265   -1.4722   -2.2137 H       1  UNL1        0.0692
     34 H           6.0262    0.1083   -0.2632 H       1  UNL1        0.1733
     35 H           3.8779    1.2189    2.9432 H       1  UNL1        0.1734
     36 H          -4.2237    0.0749   -1.1814 H       1  UNL1        0.0271
     37 H          -3.4789    1.3173   -1.6254 H       1  UNL1        0.0271
     38 H          -3.9365    2.3057    0.9149 H       1  UNL1        0.0271
     39 H          -4.8898    1.1787    1.2620 H       1  UNL1        0.0271
@<TRIPOS>BOND
     1     1     2    1
     2     2     3    1
     3     3     4    1
     4     3    20    1
     5     3    21    1
     6     4     5    1
     7     5     6    1
     8     6     7    1
     9     7     8   ar
    10     7    19   ar
    11     8     9   ar
    12     9    10    2
    13     9    11   ar
    14    11    12   ar
    15    12    13   ar
    16    12    19   ar
    17    13    14   ar
    18    14    15    2
    19    14    16   ar
    20    16    17   ar
    21    17    18    2
    22    17    19   ar
    23    20    21    1
    24     1    22    1
    25     1    23    1
    26     1    24    1
    27     2    25    1
    28     2    26    1
    29     4    27    1
    30     4    28    1
    31     5    29    1
    32     5    30    1
    33     6    31    1
    34     6    32    1
    35     8    33    1
    36    13    34    1
    37    16    35    1
    38    20    36    1
    39    20    37    1
    40    21    38    1
    41    21    39    1
@<TRIPOS>MOLECULE
../data/bude_mols_rdkit_confs2/molecule_51.pdb
 39 41 0 0 0
SMALL
GASTEIGER

@<TRIPOS>ATOM
      1  C1        -5.0450   -0.1130   -0.4760 C.3     1  UNL1       -0.0648
      2  C2        -3.6490   -0.6330   -0.4650 C.3     1  UNL1       -0.0502
      3  C3        -2.6880    0.2180    0.3120 C.3     1  UNL1       -0.0294
      4  C4        -1.2460   -0.2630    0.3590 C.3     1  UNL1       -0.0471
      5  C5        -0.6770   -0.3390   -1.0420 C.3     1  UNL1       -0.0485
      6  C6         0.7710   -0.8040   -1.0130 C.3     1  UNL1       -0.0265
      7  C7         1.6910    0.0790   -0.3260 C.ar    1  UNL1       -0.0232
      8  C8         1.4040    1.3790    0.0500 C.ar    1  UNL1        0.0270
      9  C9         2.3040    2.1970    0.7130 C.ar    1  UNL1        0.3387
     10  O1         1.9850    3.3770    1.0330 O.2     1  UNL1       -0.2451
     11  O2         3.4750    1.7400    1.0010 O.2     1  UNL1       -0.4051
     12  C10        3.8250    0.5170    0.6770 C.ar    1  UNL1        0.2190
     13  N1         5.0730    0.1380    1.0240 N.ar    1  UNL1       -0.2777
     14  C11        5.4620   -1.1080    0.7040 C.ar    1  UNL1        0.3294
     15  O3         6.6210   -1.4830    1.0190 O.2     1  UNL1       -0.2466
     16  N2         4.6840   -1.9710    0.0700 N.ar    1  UNL1       -0.2744
     17  C12        3.4210   -1.6170   -0.2920 C.ar    1  UNL1        0.2651
     18  O4         2.6770   -2.4310   -0.8970 O.2     1  UNL1       -0.2669
     19  C13        2.9650   -0.3630    0.0060 C.ar    1  UNL1        0.1029
     20  C14       -2.9800    1.6760    0.3330 C.3     1  UNL1       -0.0469
     21  C15       -3.1320    0.9000    1.5840 C.3     1  UNL1       -0.0469
     22 H          -5.6662   -0.7710   -1.0470 H       1  UNL1        0.0230
     23 H          -5.0589    0.8621   -0.9163 H       1  UNL1        0.0230
     24 H          -5.4125   -0.0566    0.5273 H       1  UNL1        0.0230
     25 H          -3.3041   -0.6929   -1.4761 H       1  UNL1        0.0268
     26 H          -3.6776   -1.5877    0.0173 H       1  UNL1        0.0268
     27 H          -1.2111   -1.2335    0.8083 H       1  UNL1        0.0271
     28 H          -0.6655    0.4263    0.9359 H       1  UNL1        0.0271
     29 H          -0.7252    0.6301   -1.4931 H       1  UNL1        0.0269
     30 H          -1.2516   -1.0424   -1.6076 H       1  UNL1        0.0269
     31 H           1.1052   -0.9078   -2.0242 H       1  UNL1        0.0313
     32 H           0.7760   -1.7221   -0.4635 H       1  UNL1        0.0313
     33 H           0.4713    1.7590   -0.1751 H       1  UNL1        0.0692
     34 H           5.6786    0.7541    1.4961 H       1  UNL1        0.1733
     35 H           5.0203   -2.8721   -0.1404 H       1  UNL1        0.1734
     36 H          -3.8473    2.0519   -0.1683 H       1  UNL1        0.0271
     37 H          -2.4343    2.5540    0.0570 H       1  UNL1        0.0271
     38 H          -2.4395    1.0382    2.3879 H       1  UNL1        0.0271
     39 H          -3.9204    0.7476    2.2912 H       1  UNL1        0.0271
@<TRIPOS>BOND
     1     1     2    1
     2     2     3    1
     3     3     4    1
     4     3    20    1
     5     3    21    1
     6     4     5    1
     7     5     6    1
     8     6     7    1
     9     7     8   ar
    10     7    19   ar
    11     8     9   ar
    12     9    10    2
    13     9    11   ar
    14    11    12   ar
    15    12    13   ar
    16    12    19   ar
    17    13    14   ar
    18    14    15    2
    19    14    16   ar
    20    16    17   ar
    21    17    18    2
    22    17    19   ar
    23    20    21    1
    24     1    22    1
    25     1    23    1
    26     1    24    1
    27     2    25    1
    28     2    26    1
    29     4    27    1
    30     4    28    1
    31     5    29    1
    32     5    30    1
    33     6    31    1
    34     6    32    1
    35     8    33    1
    36    13    34    1
    37    16    35    1
    38    20    36    1
    39    20    37    1
    40    21    38    1
    41    21    39    1
@<TRIPOS>MOLECULE
../data/bude_mols_rdkit_confs2/molecule_51.pdb
 39 41 0 0 0
SMALL
GASTEIGER

@<TRIPOS>ATOM
      1  C1        -3.3220    2.3230   -0.9280 C.3     1  UNL1       -0.0648
      2  C2        -2.3960    1.2660   -1.4090 C.3     1  UNL1       -0.0502
      3  C3        -2.0670    0.2330   -0.3310 C.3     1  UNL1       -0.0294
      4  C4        -1.1340   -0.8170   -0.8450 C.3     1  UNL1       -0.0471
      5  C5        -0.6510   -1.8670    0.0050 C.3     1  UNL1       -0.0485
      6  C6         0.3140   -1.7620    1.1070 C.3     1  UNL1       -0.0265
      7  C7         1.6980   -1.4120    0.6660 C.ar    1  UNL1       -0.0232
      8  C8         2.5160   -2.4700    0.1960 C.ar    1  UNL1        0.0270
      9  C9         3.7360   -2.2050   -0.3320 C.ar    1  UNL1        0.3387
     10  O1         4.4830   -3.1520   -0.7610 O.2     1  UNL1       -0.2451
     11  O2         4.2360   -1.0170   -0.4460 O.2     1  UNL1       -0.4051
     12  C10        3.5240    0.0010   -0.0250 C.ar    1  UNL1        0.2190
     13  N1         4.0000    1.2530   -0.1140 N.ar    1  UNL1       -0.2777
     14  C11        3.3020    2.3130    0.3170 C.ar    1  UNL1        0.3294
     15  O3         3.8040    3.4660    0.2040 O.2     1  UNL1       -0.2466
     16  N2         2.0900    2.1460    0.8580 N.ar    1  UNL1       -0.2744
     17  C12        1.5500    0.9270    0.9790 C.ar    1  UNL1        0.2651
     18  O4         0.4270    0.7630    1.4880 O.2     1  UNL1       -0.2669
     19  C13        2.2490   -0.1740    0.5380 C.ar    1  UNL1        0.1029
     20  C14       -3.3920   -0.4350    0.1390 C.3     1  UNL1       -0.0469
     21  C15       -2.5460    0.4220    1.0190 C.3     1  UNL1       -0.0469
     22 H          -3.5161    3.0149   -1.7208 H       1  UNL1        0.0230
     23 H          -2.8759    2.8402   -0.1044 H       1  UNL1        0.0230
     24 H          -4.2411    1.8753   -0.6123 H       1  UNL1        0.0230
     25 H          -1.4856    1.7284   -1.7289 H       1  UNL1        0.0268
     26 H          -2.8824    0.7515   -2.2113 H       1  UNL1        0.0268
     27 H          -0.2702   -0.3018   -1.2101 H       1  UNL1        0.0271
     28 H          -1.7455   -1.3479   -1.5443 H       1  UNL1        0.0271
     29 H          -0.2217   -2.5827   -0.6646 H       1  UNL1        0.0269
     30 H          -1.5380   -2.0323    0.5801 H       1  UNL1        0.0269
     31 H           0.3497   -2.7031    1.6148 H       1  UNL1        0.0313
     32 H          -0.0215   -0.9672    1.7400 H       1  UNL1        0.0313
     33 H           2.1818   -3.4446    0.2560 H       1  UNL1        0.0692
     34 H           4.8904    1.3973   -0.5085 H       1  UNL1        0.1733
     35 H           1.5872    2.9320    1.1721 H       1  UNL1        0.1734
     36 H          -3.4427   -1.4923    0.2953 H       1  UNL1        0.0271
     37 H          -4.4120   -0.4466   -0.1839 H       1  UNL1        0.0271
     38 H          -2.9070    1.3842    1.3169 H       1  UNL1        0.0271
     39 H          -2.1033    0.2722    1.9815 H       1  UNL1        0.0271
@<TRIPOS>BOND
     1     1     2    1
     2     2     3    1
     3     3     4    1
     4     3    20    1
     5     3    21    1
     6     4     5    1
     7     5     6    1
     8     6     7    1
     9     7     8   ar
    10     7    19   ar
    11     8     9   ar
    12     9    10    2
    13     9    11   ar
    14    11    12   ar
    15    12    13   ar
    16    12    19   ar
    17    13    14   ar
    18    14    15    2
    19    14    16   ar
    20    16    17   ar
    21    17    18    2
    22    17    19   ar
    23    20    21    1
    24     1    22    1
    25     1    23    1
    26     1    24    1
    27     2    25    1
    28     2    26    1
    29     4    27    1
    30     4    28    1
    31     5    29    1
    32     5    30    1
    33     6    31    1
    34     6    32    1
    35     8    33    1
    36    13    34    1
    37    16    35    1
    38    20    36    1
    39    20    37    1
    40    21    38    1
    41    21    39    1
@<TRIPOS>MOLECULE
../data/bude_mols_rdkit_confs2/molecule_51.pdb
 39 41 0 0 0
SMALL
GASTEIGER

@<TRIPOS>ATOM
      1  C1        -3.8840    1.9940   -0.6550 C.3     1  UNL1       -0.0648
      2  C2        -2.4900    1.6790   -0.2490 C.3     1  UNL1       -0.0502
      3  C3        -2.2460    0.2080    0.0300 C.3     1  UNL1       -0.0294
      4  C4        -0.7990   -0.0370    0.4340 C.3     1  UNL1       -0.0471
      5  C5        -0.5110   -1.4650    0.6900 C.3     1  UNL1       -0.0485
      6  C6         0.8970   -1.8480    1.0750 C.3     1  UNL1       -0.0265
      7  C7         1.8360   -1.4340    0.0210 C.ar    1  UNL1       -0.0232
      8  C8         1.9500   -2.2780   -1.1070 C.ar    1  UNL1        0.0270
      9  C9         2.7150   -1.8660   -2.1520 C.ar    1  UNL1        0.3387
     10  O1         2.8460   -2.6010   -3.2020 O.2     1  UNL1       -0.2451
     11  O2         3.3380   -0.7210   -2.1340 O.2     1  UNL1       -0.4051
     12  C10        3.2620    0.0880   -1.1090 C.ar    1  UNL1        0.2190
     13  N1         3.9210    1.2600   -1.1060 N.ar    1  UNL1       -0.2777
     14  C11        3.8600    2.0900   -0.0590 C.ar    1  UNL1        0.3294
     15  O3         4.4990    3.1620   -0.1280 O.2     1  UNL1       -0.2466
     16  N2         3.1440    1.7890    1.0240 N.ar    1  UNL1       -0.2744
     17  C12        2.4490    0.6190    1.0900 C.ar    1  UNL1        0.2651
     18  O4         1.7940    0.3450    2.1040 O.2     1  UNL1       -0.2669
     19  C13        2.4940   -0.2490    0.0220 C.ar    1  UNL1        0.1029
     20  C14       -3.1090   -0.8650   -0.4930 C.3     1  UNL1       -0.0469
     21  C15       -3.3120   -0.4170    0.9380 C.3     1  UNL1       -0.0469
     22 H          -3.9748    3.0452   -0.8328 H       1  UNL1        0.0230
     23 H          -4.5567    1.7048    0.1252 H       1  UNL1        0.0230
     24 H          -4.1245    1.4588   -1.5498 H       1  UNL1        0.0230
     25 H          -2.2652    2.2317    0.6392 H       1  UNL1        0.0268
     26 H          -1.8601    1.9467   -1.0714 H       1  UNL1        0.0268
     27 H          -0.5938    0.5186    1.3252 H       1  UNL1        0.0271
     28 H          -0.1791    0.2765   -0.3798 H       1  UNL1        0.0271
     29 H          -0.7539   -2.0031   -0.2024 H       1  UNL1        0.0269
     30 H          -1.0973   -1.7044    1.5524 H       1  UNL1        0.0269
     31 H           0.9533   -2.9088    1.2033 H       1  UNL1        0.0313
     32 H           1.1570   -1.3579    1.9900 H       1  UNL1        0.0313
     33 H           1.4629   -3.1873   -1.1364 H       1  UNL1        0.0692
     34 H           4.4595    1.5124   -1.8906 H       1  UNL1        0.1733
     35 H           3.1171    2.4167    1.7819 H       1  UNL1        0.1734
     36 H          -2.6928   -1.8304   -0.6923 H       1  UNL1        0.0271
     37 H          -3.7509   -0.9584   -1.3439 H       1  UNL1        0.0271
     38 H          -4.1835    0.1403    1.2117 H       1  UNL1        0.0271
     39 H          -3.3231   -0.8903    1.8976 H       1  UNL1        0.0271
@<TRIPOS>BOND
     1     1     2    1
     2     2     3    1
     3     3     4    1
     4     3    20    1
     5     3    21    1
     6     4     5    1
     7     5     6    1
     8     6     7    1
     9     7     8   ar
    10     7    19   ar
    11     8     9   ar
    12     9    10    2
    13     9    11   ar
    14    11    12   ar
    15    12    13   ar
    16    12    19   ar
    17    13    14   ar
    18    14    15    2
    19    14    16   ar
    20    16    17   ar
    21    17    18    2
    22    17    19   ar
    23    20    21    1
    24     1    22    1
    25     1    23    1
    26     1    24    1
    27     2    25    1
    28     2    26    1
    29     4    27    1
    30     4    28    1
    31     5    29    1
    32     5    30    1
    33     6    31    1
    34     6    32    1
    35     8    33    1
    36    13    34    1
    37    16    35    1
    38    20    36    1
    39    20    37    1
    40    21    38    1
    41    21    39    1
@<TRIPOS>MOLECULE
../data/bude_mols_rdkit_confs2/molecule_51.pdb
 39 41 0 0 0
SMALL
GASTEIGER

@<TRIPOS>ATOM
      1  C1        -4.9090    1.4830    0.0760 C.3     1  UNL1       -0.0648
      2  C2        -3.7490    1.2800   -0.8310 C.3     1  UNL1       -0.0502
      3  C3        -2.6330    0.4360   -0.1340 C.3     1  UNL1       -0.0294
      4  C4        -1.5010    0.2550   -1.0400 C.3     1  UNL1       -0.0471
      5  C5        -0.2820   -0.4890   -0.6430 C.3     1  UNL1       -0.0485
      6  C6         0.5290    0.0880    0.4700 C.3     1  UNL1       -0.0265
      7  C7         1.7460   -0.6600    0.7840 C.ar    1  UNL1       -0.0232
      8  C8         1.7890   -1.6330    1.7950 C.ar    1  UNL1        0.0270
      9  C9         2.9320   -2.3570    2.0270 C.ar    1  UNL1        0.3387
     10  O1         2.9240   -3.2140    2.9370 O.2     1  UNL1       -0.2451
     11  O2         4.0090   -2.1620    1.3190 O.2     1  UNL1       -0.4051
     12  C10        4.0410   -1.2600    0.3520 C.ar    1  UNL1        0.2190
     13  N1         5.1880   -1.1110   -0.3350 N.ar    1  UNL1       -0.2777
     14  C11        5.2560   -0.1940   -1.3270 C.ar    1  UNL1        0.3294
     15  O3         6.3470   -0.0930   -1.9390 O.2     1  UNL1       -0.2466
     16  N2         4.1850    0.5660   -1.6280 N.ar    1  UNL1       -0.2744
     17  C12        3.0110    0.4260   -0.9390 C.ar    1  UNL1        0.2651
     18  O4         2.0300    1.1460   -1.2330 O.2     1  UNL1       -0.2669
     19  C13        2.9040   -0.4930    0.0700 C.ar    1  UNL1        0.1029
     20  C14       -2.8440    0.2160    1.2630 C.3     1  UNL1       -0.0469
     21  C15       -3.2520   -0.9110    0.2950 C.3     1  UNL1       -0.0469
     22 H          -5.6563    2.0623   -0.4249 H       1  UNL1        0.0230
     23 H          -4.5875    1.9998    0.9560 H       1  UNL1        0.0230
     24 H          -5.3182    0.5330    0.3498 H       1  UNL1        0.0230
     25 H          -3.3474    2.2335   -1.1040 H       1  UNL1        0.0268
     26 H          -4.0837    0.7514   -1.6990 H       1  UNL1        0.0268
     27 H          -1.1758    1.2376   -1.3113 H       1  UNL1        0.0271
     28 H          -1.9170   -0.3842   -1.7905 H       1  UNL1        0.0271
     29 H           0.3507   -0.5554   -1.5033 H       1  UNL1        0.0269
     30 H          -0.6366   -1.4279   -0.2721 H       1  UNL1        0.0269
     31 H          -0.0815    0.1170    1.3483 H       1  UNL1        0.0313
     32 H           0.8429    1.0585    0.1467 H       1  UNL1        0.0313
     33 H           0.9506   -1.8062    2.3712 H       1  UNL1        0.0692
     34 H           5.9720   -1.6652   -0.1174 H       1  UNL1        0.1733
     35 H           4.2478    1.2299   -2.3522 H       1  UNL1        0.1734
     36 H          -3.6010    0.7709    1.7767 H       1  UNL1        0.0271
     37 H          -2.2120    0.2612    2.1252 H       1  UNL1        0.0271
     38 H          -2.6848   -1.8166    0.2391 H       1  UNL1        0.0271
     39 H          -4.1364   -1.4715    0.0746 H       1  UNL1        0.0271
@<TRIPOS>BOND
     1     1     2    1
     2     2     3    1
     3     3     4    1
     4     3    20    1
     5     3    21    1
     6     4     5    1
     7     5     6    1
     8     6     7    1
     9     7     8   ar
    10     7    19   ar
    11     8     9   ar
    12     9    10    2
    13     9    11   ar
    14    11    12   ar
    15    12    13   ar
    16    12    19   ar
    17    13    14   ar
    18    14    15    2
    19    14    16   ar
    20    16    17   ar
    21    17    18    2
    22    17    19   ar
    23    20    21    1
    24     1    22    1
    25     1    23    1
    26     1    24    1
    27     2    25    1
    28     2    26    1
    29     4    27    1
    30     4    28    1
    31     5    29    1
    32     5    30    1
    33     6    31    1
    34     6    32    1
    35     8    33    1
    36    13    34    1
    37    16    35    1
    38    20    36    1
    39    20    37    1
    40    21    38    1
    41    21    39    1
@<TRIPOS>MOLECULE
../data/bude_mols_rdkit_confs2/molecule_51.pdb
 39 41 0 0 0
SMALL
GASTEIGER

@<TRIPOS>ATOM
      1  C1        -2.8450    2.2900   -0.3600 C.3     1  UNL1       -0.0648
      2  C2        -2.9140    0.9590   -1.0860 C.3     1  UNL1       -0.0502
      3  C3        -2.9900   -0.1550   -0.0680 C.3     1  UNL1       -0.0294
      4  C4        -1.8960   -0.3350    0.9190 C.3     1  UNL1       -0.0471
      5  C5        -0.5390   -0.6070    0.2520 C.3     1  UNL1       -0.0485
      6  C6         0.5200   -0.7740    1.2810 C.3     1  UNL1       -0.0265
      7  C7         1.8810   -1.0250    0.7680 C.ar    1  UNL1       -0.0232
      8  C8         2.3570   -2.3390    0.6380 C.ar    1  UNL1        0.0270
      9  C9         3.5960   -2.5700    0.1110 C.ar    1  UNL1        0.3387
     10  O1         3.9830   -3.7880    0.0130 O.2     1  UNL1       -0.2451
     11  O2         4.3520   -1.5840   -0.2770 O.2     1  UNL1       -0.4051
     12  C10        3.9950   -0.3280   -0.1930 C.ar    1  UNL1        0.2190
     13  N1         4.8280    0.6560   -0.6100 N.ar    1  UNL1       -0.2777
     14  C11        4.4190    1.9300   -0.5000 C.ar    1  UNL1        0.3294
     15  O3         5.2040    2.8490   -0.8930 O.2     1  UNL1       -0.2466
     16  N2         3.2190    2.2370    0.0090 N.ar    1  UNL1       -0.2744
     17  C12        2.3650    1.2800    0.4330 C.ar    1  UNL1        0.2651
     18  O4         1.2440    1.5850    0.9120 O.2     1  UNL1       -0.2669
     19  C13        2.7290   -0.0290    0.3420 C.ar    1  UNL1        0.1029
     20  C14       -4.3730   -0.5580    0.4170 C.3     1  UNL1       -0.0469
     21  C15       -3.7070   -1.3850   -0.6110 C.3     1  UNL1       -0.0469
     22 H          -2.7909    3.0840   -1.0752 H       1  UNL1        0.0230
     23 H          -1.9756    2.3116    0.2633 H       1  UNL1        0.0230
     24 H          -3.7198    2.4127    0.2437 H       1  UNL1        0.0230
     25 H          -2.0393    0.8341   -1.6895 H       1  UNL1        0.0268
     26 H          -3.7806    0.9345   -1.7131 H       1  UNL1        0.0268
     27 H          -2.1386   -1.1623    1.5527 H       1  UNL1        0.0271
     28 H          -1.8077    0.5748    1.4752 H       1  UNL1        0.0271
     29 H          -0.2869    0.2166   -0.3829 H       1  UNL1        0.0269
     30 H          -0.6091   -1.5067   -0.3230 H       1  UNL1        0.0269
     31 H           0.2460   -1.6006    1.9028 H       1  UNL1        0.0313
     32 H           0.5725    0.1613    1.7981 H       1  UNL1        0.0313
     33 H           1.7700   -3.1319    0.9410 H       1  UNL1        0.0692
     34 H           5.7127    0.4417   -0.9850 H       1  UNL1        0.1733
     35 H           2.9529    3.1825    0.0758 H       1  UNL1        0.1734
     36 H          -5.2232    0.0358    0.1534 H       1  UNL1        0.0271
     37 H          -4.8035   -0.7562    1.3763 H       1  UNL1        0.0271
     38 H          -3.3518   -2.3627   -0.3603 H       1  UNL1        0.0271
     39 H          -3.9743   -1.7292   -1.5882 H       1  UNL1        0.0271
@<TRIPOS>BOND
     1     1     2    1
     2     2     3    1
     3     3     4    1
     4     3    20    1
     5     3    21    1
     6     4     5    1
     7     5     6    1
     8     6     7    1
     9     7     8   ar
    10     7    19   ar
    11     8     9   ar
    12     9    10    2
    13     9    11   ar
    14    11    12   ar
    15    12    13   ar
    16    12    19   ar
    17    13    14   ar
    18    14    15    2
    19    14    16   ar
    20    16    17   ar
    21    17    18    2
    22    17    19   ar
    23    20    21    1
    24     1    22    1
    25     1    23    1
    26     1    24    1
    27     2    25    1
    28     2    26    1
    29     4    27    1
    30     4    28    1
    31     5    29    1
    32     5    30    1
    33     6    31    1
    34     6    32    1
    35     8    33    1
    36    13    34    1
    37    16    35    1
    38    20    36    1
    39    20    37    1
    40    21    38    1
    41    21    39    1
@<TRIPOS>MOLECULE
../data/bude_mols_rdkit_confs2/molecule_51.pdb
 39 41 0 0 0
SMALL
GASTEIGER

@<TRIPOS>ATOM
      1  C1        -5.1100    0.9340    0.7390 C.3     1  UNL1       -0.0648
      2  C2        -3.9770    1.1300   -0.1930 C.3     1  UNL1       -0.0502
      3  C3        -2.7180    0.3550    0.1620 C.3     1  UNL1       -0.0294
      4  C4        -1.6210    0.6170   -0.8380 C.3     1  UNL1       -0.0471
      5  C5        -0.3550   -0.1140   -0.5610 C.3     1  UNL1       -0.0485
      6  C6         0.7280    0.1380   -1.5570 C.3     1  UNL1       -0.0265
      7  C7         1.9410   -0.5940   -1.2100 C.ar    1  UNL1       -0.0232
      8  C8         2.2300   -1.8280   -1.7690 C.ar    1  UNL1        0.0270
      9  C9         3.3360   -2.5660   -1.4370 C.ar    1  UNL1        0.3387
     10  O1         3.6050   -3.6970   -1.9460 O.2     1  UNL1       -0.2451
     11  O2         4.1660   -2.1030   -0.5580 O.2     1  UNL1       -0.4051
     12  C10        3.9700   -0.9410    0.0200 C.ar    1  UNL1        0.2190
     13  N1         4.8470   -0.4790    0.9290 N.ar    1  UNL1       -0.2777
     14  C11        4.7130    0.6980    1.5550 C.ar    1  UNL1        0.3294
     15  O3         5.5860    1.0620    2.4000 O.2     1  UNL1       -0.2466
     16  N2         3.6450    1.4600    1.2620 N.ar    1  UNL1       -0.2744
     17  C12        2.7370    1.0420    0.3600 C.ar    1  UNL1        0.2651
     18  O4         1.7640    1.7480    0.0960 O.2     1  UNL1       -0.2669
     19  C13        2.8690   -0.1650   -0.2840 C.ar    1  UNL1        0.1029
     20  C14       -2.8580   -0.9830    0.7930 C.3     1  UNL1       -0.0469
     21  C15       -2.3770    0.1540    1.5990 C.3     1  UNL1       -0.0469
     22 H          -5.9465    1.5149    0.4107 H       1  UNL1        0.0230
     23 H          -4.8222    1.2465    1.7210 H       1  UNL1        0.0230
     24 H          -5.3804   -0.1011    0.7590 H       1  UNL1        0.0230
     25 H          -3.7337    2.1719   -0.2068 H       1  UNL1        0.0268
     26 H          -4.3009    0.7595   -1.1431 H       1  UNL1        0.0268
     27 H          -1.4098    1.6659   -0.8371 H       1  UNL1        0.0271
     28 H          -1.9775    0.2664   -1.7840 H       1  UNL1        0.0271
     29 H          -0.5676   -1.1626   -0.5547 H       1  UNL1        0.0269
     30 H           0.0054    0.2418    0.3815 H       1  UNL1        0.0269
     31 H           0.9460    1.1853   -1.5788 H       1  UNL1        0.0313
     32 H           0.3920   -0.1962   -2.5164 H       1  UNL1        0.0313
     33 H           1.5788   -2.2114   -2.4718 H       1  UNL1        0.0692
     34 H           5.6295   -1.0356    1.1461 H       1  UNL1        0.1733
     35 H           3.5261    2.3288    1.7096 H       1  UNL1        0.1734
     36 H          -2.1852   -1.7714    0.5274 H       1  UNL1        0.0271
     37 H          -3.6537   -1.6919    0.8887 H       1  UNL1        0.0271
     38 H          -3.0020    0.5720    2.3603 H       1  UNL1        0.0271
     39 H          -1.5144    0.3400    2.2042 H       1  UNL1        0.0271
@<TRIPOS>BOND
     1     1     2    1
     2     2     3    1
     3     3     4    1
     4     3    20    1
     5     3    21    1
     6     4     5    1
     7     5     6    1
     8     6     7    1
     9     7     8   ar
    10     7    19   ar
    11     8     9   ar
    12     9    10    2
    13     9    11   ar
    14    11    12   ar
    15    12    13   ar
    16    12    19   ar
    17    13    14   ar
    18    14    15    2
    19    14    16   ar
    20    16    17   ar
    21    17    18    2
    22    17    19   ar
    23    20    21    1
    24     1    22    1
    25     1    23    1
    26     1    24    1
    27     2    25    1
    28     2    26    1
    29     4    27    1
    30     4    28    1
    31     5    29    1
    32     5    30    1
    33     6    31    1
    34     6    32    1
    35     8    33    1
    36    13    34    1
    37    16    35    1
    38    20    36    1
    39    20    37    1
    40    21    38    1
    41    21    39    1
@<TRIPOS>MOLECULE
../data/bude_mols_rdkit_confs2/molecule_51.pdb
 39 41 0 0 0
SMALL
GASTEIGER

@<TRIPOS>ATOM
      1  C1        -4.6660   -0.8320    1.2780 C.3     1  UNL1       -0.0648
      2  C2        -3.3060   -0.1860    1.2360 C.3     1  UNL1       -0.0502
      3  C3        -3.0320    0.5630   -0.0140 C.3     1  UNL1       -0.0294
      4  C4        -1.6740    1.2260   -0.0900 C.3     1  UNL1       -0.0471
      5  C5        -0.6080    0.1510    0.0260 C.3     1  UNL1       -0.0485
      6  C6         0.7830    0.7830   -0.0490 C.3     1  UNL1       -0.0265
      7  C7         1.7710   -0.3010    0.0700 C.ar    1  UNL1       -0.0232
      8  C8         1.4280   -1.6450    0.2220 C.ar    1  UNL1        0.0270
      9  C9         2.4130   -2.6070    0.3270 C.ar    1  UNL1        0.3387
     10  O1         2.0400   -3.8160    0.4640 O.2     1  UNL1       -0.2451
     11  O2         3.6680   -2.2630    0.2830 O.2     1  UNL1       -0.4051
     12  C10        4.0410   -1.0050    0.1410 C.ar    1  UNL1        0.2190
     13  N1         5.3580   -0.6680    0.0980 N.ar    1  UNL1       -0.2777
     14  C11        5.7760    0.6020   -0.0460 C.ar    1  UNL1        0.3294
     15  O3         7.0350    0.8110   -0.0740 O.2     1  UNL1       -0.2466
     16  N2         4.8970    1.6110   -0.1560 N.ar    1  UNL1       -0.2744
     17  C12        3.5640    1.3110   -0.1180 C.ar    1  UNL1        0.2651
     18  O4         2.7500    2.2380   -0.2190 O.2     1  UNL1       -0.2669
     19  C13        3.1220    0.0210    0.0290 C.ar    1  UNL1        0.1029
     20  C14       -4.0800    1.1390   -0.8690 C.3     1  UNL1       -0.0469
     21  C15       -3.4580   -0.1830   -1.2890 C.3     1  UNL1       -0.0469
     22 H          -4.7863   -1.3501    2.2065 H       1  UNL1        0.0230
     23 H          -4.7566   -1.5255    0.4682 H       1  UNL1        0.0230
     24 H          -5.4213   -0.0793    1.1891 H       1  UNL1        0.0230
     25 H          -2.5663   -0.9524    1.3380 H       1  UNL1        0.0268
     26 H          -3.2762    0.5247    2.0354 H       1  UNL1        0.0268
     27 H          -1.5689    1.9270    0.7115 H       1  UNL1        0.0271
     28 H          -1.5709    1.7469   -1.0190 H       1  UNL1        0.0271
     29 H          -0.7226   -0.5494   -0.7747 H       1  UNL1        0.0269
     30 H          -0.7157   -0.3504    0.9651 H       1  UNL1        0.0269
     31 H           0.9099    1.4818    0.7513 H       1  UNL1        0.0313
     32 H           0.9087    1.3063   -0.9738 H       1  UNL1        0.0313
     33 H           0.4342   -1.9211    0.2561 H       1  UNL1        0.0692
     34 H           6.0316   -1.3818    0.1753 H       1  UNL1        0.1733
     35 H           5.2039    2.5405   -0.2610 H       1  UNL1        0.1734
     36 H          -3.8756    2.0242   -1.4344 H       1  UNL1        0.0271
     37 H          -5.0829    1.4706   -0.6986 H       1  UNL1        0.0271
     38 H          -4.0199   -1.0912   -1.2230 H       1  UNL1        0.0271
     39 H          -2.9669   -0.5612   -2.1612 H       1  UNL1        0.0271
@<TRIPOS>BOND
     1     1     2    1
     2     2     3    1
     3     3     4    1
     4     3    20    1
     5     3    21    1
     6     4     5    1
     7     5     6    1
     8     6     7    1
     9     7     8   ar
    10     7    19   ar
    11     8     9   ar
    12     9    10    2
    13     9    11   ar
    14    11    12   ar
    15    12    13   ar
    16    12    19   ar
    17    13    14   ar
    18    14    15    2
    19    14    16   ar
    20    16    17   ar
    21    17    18    2
    22    17    19   ar
    23    20    21    1
    24     1    22    1
    25     1    23    1
    26     1    24    1
    27     2    25    1
    28     2    26    1
    29     4    27    1
    30     4    28    1
    31     5    29    1
    32     5    30    1
    33     6    31    1
    34     6    32    1
    35     8    33    1
    36    13    34    1
    37    16    35    1
    38    20    36    1
    39    20    37    1
    40    21    38    1
    41    21    39    1
@<TRIPOS>MOLECULE
../data/bude_mols_rdkit_confs2/molecule_51.pdb
 39 41 0 0 0
SMALL
GASTEIGER

@<TRIPOS>ATOM
      1  C1        -3.4790   -0.8920    2.3360 C.3     1  UNL1       -0.0648
      2  C2        -2.4870    0.2440    2.2530 C.3     1  UNL1       -0.0502
      3  C3        -2.1340    0.3820    0.7350 C.3     1  UNL1       -0.0294
      4  C4        -1.5430   -0.8910    0.2430 C.3     1  UNL1       -0.0471
      5  C5        -1.0650   -0.9790   -1.1400 C.3     1  UNL1       -0.0485
      6  C6         0.1810   -0.1270   -1.4560 C.3     1  UNL1       -0.0265
      7  C7         1.3690   -0.6380   -0.7060 C.ar    1  UNL1       -0.0232
      8  C8         1.3790   -1.8710   -0.1150 C.ar    1  UNL1        0.0270
      9  C9         2.4880   -2.2720    0.6020 C.ar    1  UNL1        0.3387
     10  O1         2.4940   -3.4330    1.1620 O.2     1  UNL1       -0.2451
     11  O2         3.5170   -1.4960    0.7160 O.2     1  UNL1       -0.4051
     12  C10        3.5260   -0.3140    0.1520 C.ar    1  UNL1        0.2190
     13  N1         4.6240    0.4850    0.2800 N.ar    1  UNL1       -0.2777
     14  C11        4.6690    1.6980   -0.2910 C.ar    1  UNL1        0.3294
     15  O3         5.7110    2.4170   -0.1500 O.2     1  UNL1       -0.2466
     16  N2         3.6430    2.1710   -1.0070 N.ar    1  UNL1       -0.2744
     17  C12        2.5170    1.4330   -1.1760 C.ar    1  UNL1        0.2651
     18  O4         1.5600    1.8710   -1.8480 O.2     1  UNL1       -0.2669
     19  C13        2.4660    0.1920   -0.5900 C.ar    1  UNL1        0.1029
     20  C14       -2.1840    1.7020    0.1810 C.3     1  UNL1       -0.0469
     21  C15       -3.4360    0.8230    0.0260 C.3     1  UNL1       -0.0469
     22 H          -3.7653   -1.0417    3.3561 H       1  UNL1        0.0230
     23 H          -3.0299   -1.7861    1.9567 H       1  UNL1        0.0230
     24 H          -4.3445   -0.6530    1.7540 H       1  UNL1        0.0230
     25 H          -1.6096    0.0164    2.8216 H       1  UNL1        0.0268
     26 H          -2.8898    1.1521    2.6506 H       1  UNL1        0.0268
     27 H          -2.2902   -1.6475    0.3625 H       1  UNL1        0.0271
     28 H          -0.6504   -0.9941    0.8239 H       1  UNL1        0.0271
     29 H          -1.8568   -0.6607   -1.7855 H       1  UNL1        0.0269
     30 H          -0.7759   -1.9980   -1.2915 H       1  UNL1        0.0269
     31 H          -0.0050    0.8877   -1.1718 H       1  UNL1        0.0313
     32 H           0.3829   -0.1853   -2.5052 H       1  UNL1        0.0313
     33 H           0.5634   -2.4970   -0.2044 H       1  UNL1        0.0692
     34 H           5.3966    0.1661    0.8003 H       1  UNL1        0.1733
     35 H           3.7055    3.0644   -1.4159 H       1  UNL1        0.1734
     36 H          -1.5933    1.9356   -0.6801 H       1  UNL1        0.0271
     37 H          -2.0096    2.6798    0.5789 H       1  UNL1        0.0271
     38 H          -4.3224    1.0293    0.5886 H       1  UNL1        0.0271
     39 H          -4.0482    0.4683   -0.7767 H       1  UNL1        0.0271
@<TRIPOS>BOND
     1     1     2    1
     2     2     3    1
     3     3     4    1
     4     3    20    1
     5     3    21    1
     6     4     5    1
     7     5     6    1
     8     6     7    1
     9     7     8   ar
    10     7    19   ar
    11     8     9   ar
    12     9    10    2
    13     9    11   ar
    14    11    12   ar
    15    12    13   ar
    16    12    19   ar
    17    13    14   ar
    18    14    15    2
    19    14    16   ar
    20    16    17   ar
    21    17    18    2
    22    17    19   ar
    23    20    21    1
    24     1    22    1
    25     1    23    1
    26     1    24    1
    27     2    25    1
    28     2    26    1
    29     4    27    1
    30     4    28    1
    31     5    29    1
    32     5    30    1
    33     6    31    1
    34     6    32    1
    35     8    33    1
    36    13    34    1
    37    16    35    1
    38    20    36    1
    39    20    37    1
    40    21    38    1
    41    21    39    1
