@<TRIPOS>MOLECULE
../data/bude_mols_rdkit_confs2/molecule_39.pdb
 35 36 0 0 0
SMALL
GASTEIGER

@<TRIPOS>ATOM
      1 C          -6.7110   -0.0190   -1.0780 C.3     1  UNL1       -0.0397
      2 C          -5.2840    0.0940   -0.6420 C.ar    1  UNL1       -0.0504
      3 C          -4.3110   -0.6740   -1.2250 C.ar    1  UNL1       -0.0585
      4 C          -3.0040   -0.5610   -0.8220 C.ar    1  UNL1       -0.0561
      5 C          -2.6140    0.3160    0.1730 C.ar    1  UNL1       -0.0196
      6 C          -1.1750    0.4150    0.6020 C.3     1  UNL1        0.0983
      7 O          -0.5350   -0.6750    0.0990 O.3     1  UNL1       -0.2749
      8 N           0.7610   -0.7990    0.3460 N.am    1  UNL1       -0.1902
      9 C           1.7650    0.1010   -0.1000 C.2     1  UNL1        0.2669
     10 O           1.3290    1.0930   -0.7850 O.2     1  UNL1       -0.2681
     11 C           3.1900   -0.0400    0.1670 C.ar    1  UNL1        0.0451
     12 C           3.5870   -0.3550    1.4470 C.ar    1  UNL1       -0.0491
     13 C           4.9420   -0.5260    1.7600 C.ar    1  UNL1       -0.0546
     14 C           5.8850   -0.3750    0.7690 C.ar    1  UNL1        0.0156
     15 C           5.4820   -0.0620   -0.5070 C.ar    1  UNL1        0.2739
     16 N           6.4700    0.0790   -1.5060 N.pl3   1  UNL1        0.0796
     17 O           7.6800   -0.0850   -1.2610 O.2     1  UNL1        0.0414
     18 O           6.0700    0.3980   -2.7820 O.co2   1  UNL1       -0.5760
     19 C           4.1390    0.1080   -0.8170 C.ar    1  UNL1        0.0277
     20 C          -3.5940    1.0870    0.7580 C.ar    1  UNL1       -0.0561
     21 C          -4.9040    0.9690    0.3490 C.ar    1  UNL1       -0.0585
     22 H          -6.7899   -0.7514   -1.8540 H       1  UNL1        0.0278
     23 H          -7.0477    0.9278   -1.4456 H       1  UNL1        0.0278
     24 H          -7.3158   -0.3142   -0.2461 H       1  UNL1        0.0278
     25 H          -4.5621   -1.3411   -1.9713 H       1  UNL1        0.0620
     26 H          -2.2889   -1.1500   -1.2766 H       1  UNL1        0.0621
     27 H          -1.1093    0.4196    1.6700 H       1  UNL1        0.0634
     28 H          -0.7302    1.3192    0.2422 H       1  UNL1        0.0634
     29 H           1.0500   -1.5743    0.8795 H       1  UNL1        0.1828
     30 H           2.8762   -0.4668    2.1868 H       1  UNL1        0.0625
     31 H           5.2296   -0.7624    2.7225 H       1  UNL1        0.0620
     32 H           6.8874   -0.4959    0.9826 H       1  UNL1        0.0685
     33 H           3.8548    0.3441   -1.7806 H       1  UNL1        0.0693
     34 H          -3.3462    1.7548    1.5047 H       1  UNL1        0.0621
     35 H          -5.6231    1.5556    0.8004 H       1  UNL1        0.0620
@<TRIPOS>UNITY_ATOM_ATTR
16 1
charge 1
18 1
charge -1
@<TRIPOS>BOND
     1     1     2    1
     2     2     3   ar
     3     2    21   ar
     4     3     4   ar
     5     4     5   ar
     6     5     6    1
     7     5    20   ar
     8     6     7    1
     9     7     8    1
    10     8     9   am
    11     9    10    2
    12     9    11    1
    13    11    12   ar
    14    11    19   ar
    15    12    13   ar
    16    13    14   ar
    17    14    15   ar
    18    15    16    1
    19    15    19   ar
    20    16    17    2
    21    16    18    1
    22    20    21   ar
    23     1    22    1
    24     1    23    1
    25     1    24    1
    26     3    25    1
    27     4    26    1
    28     6    27    1
    29     6    28    1
    30     8    29    1
    31    12    30    1
    32    13    31    1
    33    14    32    1
    34    19    33    1
    35    20    34    1
    36    21    35    1
@<TRIPOS>MOLECULE
../data/bude_mols_rdkit_confs2/molecule_39.pdb
 35 36 0 0 0
SMALL
GASTEIGER

@<TRIPOS>ATOM
      1 C           6.7210    0.0600    0.5970 C.3     1  UNL1       -0.0397
      2 C           5.2770    0.0460    0.2480 C.ar    1  UNL1       -0.0504
      3 C           4.4680   -0.9360    0.7840 C.ar    1  UNL1       -0.0585
      4 C           3.1260   -1.0240    0.5190 C.ar    1  UNL1       -0.0561
      5 C           2.5640   -0.0720   -0.3340 C.ar    1  UNL1       -0.0196
      6 C           1.1270   -0.1310   -0.6780 C.3     1  UNL1        0.0983
      7 O           0.4540    0.8030    0.1320 O.3     1  UNL1       -0.2749
      8 N          -0.8780    0.6380   -0.2230 N.am    1  UNL1       -0.1902
      9 C          -1.7500    0.0440    0.7300 C.2     1  UNL1        0.2669
     10 O          -1.2160   -0.2680    1.8390 O.2     1  UNL1       -0.2681
     11 C          -3.1400   -0.1890    0.4490 C.ar    1  UNL1        0.0451
     12 C          -3.5520   -1.4800    0.2510 C.ar    1  UNL1       -0.0491
     13 C          -4.8880   -1.7950   -0.0030 C.ar    1  UNL1       -0.0546
     14 C          -5.7920   -0.7540   -0.0500 C.ar    1  UNL1        0.0156
     15 C          -5.4040    0.5460    0.1460 C.ar    1  UNL1        0.2739
     16 N          -6.3360    1.6280    0.1030 N.pl3   1  UNL1        0.0796
     17 O          -7.5500    1.4420   -0.0720 O.2     1  UNL1        0.0414
     18 O          -5.9140    2.9300    0.2770 O.co2   1  UNL1       -0.5760
     19 C          -4.0510    0.8220    0.3990 C.ar    1  UNL1        0.0277
     20 C           3.3840    0.9020   -0.8610 C.ar    1  UNL1       -0.0561
     21 C           4.7360    0.9890   -0.5910 C.ar    1  UNL1       -0.0585
     22 H           6.9361   -0.7534    1.2581 H       1  UNL1        0.0278
     23 H           6.9626    0.9844    1.0786 H       1  UNL1        0.0278
     24 H           7.3044   -0.0410   -0.2943 H       1  UNL1        0.0278
     25 H           4.8929   -1.6355    1.4127 H       1  UNL1        0.0620
     26 H           2.5490   -1.7706    0.9369 H       1  UNL1        0.0621
     27 H           0.7480   -1.1142   -0.4923 H       1  UNL1        0.0634
     28 H           0.9800    0.0963   -1.7132 H       1  UNL1        0.0634
     29 H          -1.2079    0.9230   -1.1057 H       1  UNL1        0.1828
     30 H          -2.8558   -2.2407    0.2907 H       1  UNL1        0.0625
     31 H          -5.1885   -2.7712   -0.1503 H       1  UNL1        0.0620
     32 H          -6.7858   -0.9592   -0.2375 H       1  UNL1        0.0685
     33 H          -3.7451    1.7963    0.5479 H       1  UNL1        0.0693
     34 H           2.9657    1.6041   -1.4912 H       1  UNL1        0.0621
     35 H           5.3176    1.7346   -1.0043 H       1  UNL1        0.0620
@<TRIPOS>UNITY_ATOM_ATTR
16 1
charge 1
18 1
charge -1
@<TRIPOS>BOND
     1     1     2    1
     2     2     3   ar
     3     2    21   ar
     4     3     4   ar
     5     4     5   ar
     6     5     6    1
     7     5    20   ar
     8     6     7    1
     9     7     8    1
    10     8     9   am
    11     9    10    2
    12     9    11    1
    13    11    12   ar
    14    11    19   ar
    15    12    13   ar
    16    13    14   ar
    17    14    15   ar
    18    15    16    1
    19    15    19   ar
    20    16    17    2
    21    16    18    1
    22    20    21   ar
    23     1    22    1
    24     1    23    1
    25     1    24    1
    26     3    25    1
    27     4    26    1
    28     6    27    1
    29     6    28    1
    30     8    29    1
    31    12    30    1
    32    13    31    1
    33    14    32    1
    34    19    33    1
    35    20    34    1
    36    21    35    1
@<TRIPOS>MOLECULE
../data/bude_mols_rdkit_confs2/molecule_39.pdb
 35 36 0 0 0
SMALL
GASTEIGER

@<TRIPOS>ATOM
      1 C           6.6470   -0.1740    0.6080 C.3     1  UNL1       -0.0397
      2 C           5.2290   -0.0310    0.1470 C.ar    1  UNL1       -0.0504
      3 C           4.3200   -1.0480    0.3520 C.ar    1  UNL1       -0.0585
      4 C           3.0090   -0.9060   -0.0600 C.ar    1  UNL1       -0.0561
      5 C           2.5460    0.2320   -0.6840 C.ar    1  UNL1       -0.0196
      6 C           1.0860    0.3230   -1.0660 C.3     1  UNL1        0.0983
      7 O           0.4860   -0.8110   -0.6340 O.3     1  UNL1       -0.2749
      8 N          -0.8150   -0.9700   -0.7790 N.am    1  UNL1       -0.1902
      9 C          -1.6810   -0.1120   -0.0350 C.2     1  UNL1        0.2669
     10 O          -1.1760    0.7920    0.7270 O.2     1  UNL1       -0.2681
     11 C          -3.1320   -0.1870   -0.0680 C.ar    1  UNL1        0.0451
     12 C          -3.8470   -0.9450   -0.9580 C.ar    1  UNL1       -0.0491
     13 C          -5.2180   -1.0050   -0.9110 C.ar    1  UNL1       -0.0546
     14 C          -5.9070   -0.2950    0.0420 C.ar    1  UNL1        0.0156
     15 C          -5.2380    0.4760    0.9510 C.ar    1  UNL1        0.2739
     16 N          -5.9170    1.2380    1.9620 N.pl3   1  UNL1        0.0796
     17 O          -7.1380    1.2040    2.0330 O.2     1  UNL1        0.0414
     18 O          -5.1850    2.0010    2.8410 O.co2   1  UNL1       -0.5760
     19 C          -3.8740    0.5180    0.8810 C.ar    1  UNL1        0.0277
     20 C           3.4410    1.2530   -0.8960 C.ar    1  UNL1       -0.0561
     21 C           4.7680    1.1080   -0.4780 C.ar    1  UNL1       -0.0585
     22 H           6.7792   -1.1336    1.0625 H       1  UNL1        0.0278
     23 H           6.8692    0.5921    1.3212 H       1  UNL1        0.0278
     24 H           7.3055   -0.0827   -0.2304 H       1  UNL1        0.0278
     25 H           4.6208   -1.9196    0.8156 H       1  UNL1        0.0620
     26 H           2.3504   -1.6829    0.1061 H       1  UNL1        0.0621
     27 H           0.9899    0.4064   -2.1284 H       1  UNL1        0.0634
     28 H           0.6314    1.1846   -0.6235 H       1  UNL1        0.0634
     29 H          -1.1781   -1.6588   -1.3815 H       1  UNL1        0.1828
     30 H          -3.3434   -1.4832   -1.6803 H       1  UNL1        0.0625
     31 H          -5.7318   -1.5846   -1.5930 H       1  UNL1        0.0620
     32 H          -6.9374   -0.3441    0.0719 H       1  UNL1        0.0685
     33 H          -3.3664    1.1009    1.5649 H       1  UNL1        0.0693
     34 H           3.1357    2.1222   -1.3612 H       1  UNL1        0.0621
     35 H           5.4277    1.8840   -0.6440 H       1  UNL1        0.0620
@<TRIPOS>UNITY_ATOM_ATTR
16 1
charge 1
18 1
charge -1
@<TRIPOS>BOND
     1     1     2    1
     2     2     3   ar
     3     2    21   ar
     4     3     4   ar
     5     4     5   ar
     6     5     6    1
     7     5    20   ar
     8     6     7    1
     9     7     8    1
    10     8     9   am
    11     9    10    2
    12     9    11    1
    13    11    12   ar
    14    11    19   ar
    15    12    13   ar
    16    13    14   ar
    17    14    15   ar
    18    15    16    1
    19    15    19   ar
    20    16    17    2
    21    16    18    1
    22    20    21   ar
    23     1    22    1
    24     1    23    1
    25     1    24    1
    26     3    25    1
    27     4    26    1
    28     6    27    1
    29     6    28    1
    30     8    29    1
    31    12    30    1
    32    13    31    1
    33    14    32    1
    34    19    33    1
    35    20    34    1
    36    21    35    1
@<TRIPOS>MOLECULE
../data/bude_mols_rdkit_confs2/molecule_39.pdb
 35 36 0 0 0
SMALL
GASTEIGER

@<TRIPOS>ATOM
      1 C           6.7780   -0.0100    0.4330 C.3     1  UNL1       -0.0397
      2 C           5.3140    0.1540    0.5960 C.ar    1  UNL1       -0.0504
      3 C           4.7300    0.8690    1.6180 C.ar    1  UNL1       -0.0585
      4 C           3.3410    0.9920    1.7310 C.ar    1  UNL1       -0.0561
      5 C           2.5300    0.3870    0.8010 C.ar    1  UNL1       -0.0196
      6 C           1.0510    0.5020    0.8980 C.3     1  UNL1        0.0983
      7 O           0.4970   -0.1970   -0.1750 O.3     1  UNL1       -0.2749
      8 N          -0.8610   -0.0950   -0.0860 N.am    1  UNL1       -0.1902
      9 C          -1.7100   -0.2060   -1.2200 C.2     1  UNL1        0.2669
     10 O          -1.1170   -0.4070   -2.3250 O.2     1  UNL1       -0.2681
     11 C          -3.1580   -0.1020   -1.1670 C.ar    1  UNL1        0.0451
     12 C          -3.8640   -0.2060   -2.3430 C.ar    1  UNL1       -0.0491
     13 C          -5.2520   -0.1180   -2.3800 C.ar    1  UNL1       -0.0546
     14 C          -5.9430    0.0810   -1.1890 C.ar    1  UNL1        0.0156
     15 C          -5.2570    0.1880   -0.0030 C.ar    1  UNL1        0.2739
     16 N          -5.9430    0.3920    1.2240 N.pl3   1  UNL1        0.0796
     17 O          -5.3090    0.4870    2.2930 O.2     1  UNL1        0.0414
     18 O          -7.2990    0.4890    1.2730 O.co2   1  UNL1       -0.5760
     19 C          -3.8600    0.0930   -0.0130 C.ar    1  UNL1        0.0277
     20 C           3.1310   -0.3280   -0.2210 C.ar    1  UNL1       -0.0561
     21 C           4.4940   -0.4500   -0.3320 C.ar    1  UNL1       -0.0585
     22 H           7.2848    0.5088    1.2197 H       1  UNL1        0.0278
     23 H           7.0790    0.3926   -0.5116 H       1  UNL1        0.0278
     24 H           7.0271   -1.0498    0.4732 H       1  UNL1        0.0278
     25 H           5.3333    1.3264    2.3194 H       1  UNL1        0.0620
     26 H           2.9285    1.5330    2.5070 H       1  UNL1        0.0621
     27 H           0.7621    1.5311    0.8499 H       1  UNL1        0.0634
     28 H           0.7050    0.0972    1.8261 H       1  UNL1        0.0634
     29 H          -1.2676    0.0613    0.7969 H       1  UNL1        0.1828
     30 H          -3.3484   -0.3538   -3.2247 H       1  UNL1        0.0625
     31 H          -5.7598   -0.1989   -3.2748 H       1  UNL1        0.0620
     32 H          -6.9728    0.1484   -1.1962 H       1  UNL1        0.0685
     33 H          -3.3462    0.1728    0.8784 H       1  UNL1        0.0693
     34 H           2.5322   -0.7863   -0.9256 H       1  UNL1        0.0621
     35 H           4.9033   -0.9927   -1.1085 H       1  UNL1        0.0620
@<TRIPOS>UNITY_ATOM_ATTR
16 1
charge 1
18 1
charge -1
@<TRIPOS>BOND
     1     1     2    1
     2     2     3   ar
     3     2    21   ar
     4     3     4   ar
     5     4     5   ar
     6     5     6    1
     7     5    20   ar
     8     6     7    1
     9     7     8    1
    10     8     9   am
    11     9    10    2
    12     9    11    1
    13    11    12   ar
    14    11    19   ar
    15    12    13   ar
    16    13    14   ar
    17    14    15   ar
    18    15    16    1
    19    15    19   ar
    20    16    17    2
    21    16    18    1
    22    20    21   ar
    23     1    22    1
    24     1    23    1
    25     1    24    1
    26     3    25    1
    27     4    26    1
    28     6    27    1
    29     6    28    1
    30     8    29    1
    31    12    30    1
    32    13    31    1
    33    14    32    1
    34    19    33    1
    35    20    34    1
    36    21    35    1
@<TRIPOS>MOLECULE
../data/bude_mols_rdkit_confs2/molecule_39.pdb
 35 36 0 0 0
SMALL
GASTEIGER

@<TRIPOS>ATOM
      1 C          -6.6690   -0.7030   -0.2010 C.3     1  UNL1       -0.0397
      2 C          -5.2170   -0.4590   -0.0610 C.ar    1  UNL1       -0.0504
      3 C          -4.7530    0.8190    0.2400 C.ar    1  UNL1       -0.0585
      4 C          -3.3670    0.9990    0.3720 C.ar    1  UNL1       -0.0561
      5 C          -2.5010   -0.0560    0.2080 C.ar    1  UNL1       -0.0196
      6 C          -1.0520    0.1080    0.3630 C.3     1  UNL1        0.0983
      7 O          -0.3930   -0.4880   -0.7450 O.3     1  UNL1       -0.2749
      8 N           0.9190   -0.3100   -0.4680 N.am    1  UNL1       -0.1902
      9 C           1.7360    0.6630   -1.1080 C.2     1  UNL1        0.2669
     10 O           1.2690    1.4090   -1.9750 O.2     1  UNL1       -0.2681
     11 C           3.1630    0.7460   -0.6880 C.ar    1  UNL1        0.0451
     12 C           3.7120    1.9540   -0.3630 C.ar    1  UNL1       -0.0491
     13 C           5.0160    2.0280    0.0470 C.ar    1  UNL1       -0.0546
     14 C           5.7810    0.8700    0.1310 C.ar    1  UNL1        0.0156
     15 C           5.2180   -0.3440   -0.2000 C.ar    1  UNL1        0.2739
     16 N           5.9970   -1.5520   -0.1260 N.pl3   1  UNL1        0.0796
     17 O           7.1680   -1.4720    0.2630 O.2     1  UNL1        0.0414
     18 O           5.4170   -2.7390   -0.4820 O.co2   1  UNL1       -0.5760
     19 C           3.9060   -0.3960   -0.6100 C.ar    1  UNL1        0.0277
     20 C          -3.0140   -1.3000   -0.0900 C.ar    1  UNL1       -0.0561
     21 C          -4.3640   -1.5280   -0.2280 C.ar    1  UNL1       -0.0585
     22 H          -7.2011    0.2123   -0.0458 H       1  UNL1        0.0278
     23 H          -6.9810   -1.4245    0.5249 H       1  UNL1        0.0278
     24 H          -6.8754   -1.0733   -1.1835 H       1  UNL1        0.0278
     25 H          -5.4068    1.6081    0.3621 H       1  UNL1        0.0620
     26 H          -2.9936    1.9349    0.5949 H       1  UNL1        0.0621
     27 H          -0.7328   -0.3671    1.2670 H       1  UNL1        0.0634
     28 H          -0.8109    1.1496    0.4067 H       1  UNL1        0.0634
     29 H           1.3318   -0.8864    0.2151 H       1  UNL1        0.1828
     30 H           3.1426    2.8124   -0.4267 H       1  UNL1        0.0625
     31 H           5.4301    2.9407    0.2930 H       1  UNL1        0.0620
     32 H           6.7646    0.9191    0.4394 H       1  UNL1        0.0685
     33 H           3.4816   -1.3029   -0.8598 H       1  UNL1        0.0693
     34 H          -2.3615   -2.0898   -0.2143 H       1  UNL1        0.0621
     35 H          -4.7257   -2.4689   -0.4493 H       1  UNL1        0.0620
@<TRIPOS>UNITY_ATOM_ATTR
16 1
charge 1
18 1
charge -1
@<TRIPOS>BOND
     1     1     2    1
     2     2     3   ar
     3     2    21   ar
     4     3     4   ar
     5     4     5   ar
     6     5     6    1
     7     5    20   ar
     8     6     7    1
     9     7     8    1
    10     8     9   am
    11     9    10    2
    12     9    11    1
    13    11    12   ar
    14    11    19   ar
    15    12    13   ar
    16    13    14   ar
    17    14    15   ar
    18    15    16    1
    19    15    19   ar
    20    16    17    2
    21    16    18    1
    22    20    21   ar
    23     1    22    1
    24     1    23    1
    25     1    24    1
    26     3    25    1
    27     4    26    1
    28     6    27    1
    29     6    28    1
    30     8    29    1
    31    12    30    1
    32    13    31    1
    33    14    32    1
    34    19    33    1
    35    20    34    1
    36    21    35    1
@<TRIPOS>MOLECULE
../data/bude_mols_rdkit_confs2/molecule_39.pdb
 35 36 0 0 0
SMALL
GASTEIGER

@<TRIPOS>ATOM
      1 C           4.7650    1.4240   -1.0810 C.3     1  UNL1       -0.0397
      2 C           3.8480    0.4370   -0.4380 C.ar    1  UNL1       -0.0504
      3 C           2.6150    0.1490   -0.9980 C.ar    1  UNL1       -0.0585
      4 C           1.7550   -0.7580   -0.4200 C.ar    1  UNL1       -0.0561
      5 C           2.0820   -1.4220    0.7470 C.ar    1  UNL1       -0.0196
      6 C           1.1340   -2.4030    1.3620 C.3     1  UNL1        0.0983
      7 O           0.2400   -1.7800    2.2300 O.3     1  UNL1       -0.2749
      8 N          -0.4370   -0.8670    1.4550 N.am    1  UNL1       -0.1902
      9 C          -1.6990   -1.1900    0.8830 C.2     1  UNL1        0.2669
     10 O          -2.1490   -2.3610    1.1340 O.2     1  UNL1       -0.2681
     11 C          -2.4830   -0.2880    0.0510 C.ar    1  UNL1        0.0451
     12 C          -2.2360   -0.1820   -1.3040 C.ar    1  UNL1       -0.0491
     13 C          -2.9950    0.6840   -2.0810 C.ar    1  UNL1       -0.0546
     14 C          -3.9830    1.4240   -1.4820 C.ar    1  UNL1        0.0156
     15 C          -4.2700    1.3560   -0.1390 C.ar    1  UNL1        0.2739
     16 N          -5.3060    2.1410    0.4550 N.pl3   1  UNL1        0.0796
     17 O          -5.5060    2.0330    1.6830 O.2     1  UNL1        0.0414
     18 O          -6.0830    2.9980   -0.2530 O.co2   1  UNL1       -0.5760
     19 C          -3.5040    0.4900    0.6100 C.ar    1  UNL1        0.0277
     20 C           3.3100   -1.1380    1.3090 C.ar    1  UNL1       -0.0561
     21 C           4.1780   -0.2250    0.7280 C.ar    1  UNL1       -0.0585
     22 H           4.3077    1.8107   -1.9677 H       1  UNL1        0.0278
     23 H           5.6858    0.9421   -1.3356 H       1  UNL1        0.0278
     24 H           4.9588    2.2267   -0.4005 H       1  UNL1        0.0278
     25 H           2.3338    0.6253   -1.8692 H       1  UNL1        0.0620
     26 H           0.8450   -0.9463   -0.8688 H       1  UNL1        0.0621
     27 H           1.6953   -3.1328    1.9072 H       1  UNL1        0.0634
     28 H           0.5714   -2.8614    0.5757 H       1  UNL1        0.0634
     29 H          -0.0433    0.0209    1.2942 H       1  UNL1        0.1828
     30 H          -1.4885   -0.7455   -1.7385 H       1  UNL1        0.0625
     31 H          -2.8183    0.7695   -3.0942 H       1  UNL1        0.0620
     32 H          -4.5393    2.0645   -2.0696 H       1  UNL1        0.0685
     33 H          -3.6899    0.4117    1.6221 H       1  UNL1        0.0693
     34 H           3.5887   -1.6152    2.1805 H       1  UNL1        0.0621
     35 H           5.0884   -0.0369    1.1761 H       1  UNL1        0.0620
@<TRIPOS>UNITY_ATOM_ATTR
16 1
charge 1
18 1
charge -1
@<TRIPOS>BOND
     1     1     2    1
     2     2     3   ar
     3     2    21   ar
     4     3     4   ar
     5     4     5   ar
     6     5     6    1
     7     5    20   ar
     8     6     7    1
     9     7     8    1
    10     8     9   am
    11     9    10    2
    12     9    11    1
    13    11    12   ar
    14    11    19   ar
    15    12    13   ar
    16    13    14   ar
    17    14    15   ar
    18    15    16    1
    19    15    19   ar
    20    16    17    2
    21    16    18    1
    22    20    21   ar
    23     1    22    1
    24     1    23    1
    25     1    24    1
    26     3    25    1
    27     4    26    1
    28     6    27    1
    29     6    28    1
    30     8    29    1
    31    12    30    1
    32    13    31    1
    33    14    32    1
    34    19    33    1
    35    20    34    1
    36    21    35    1
@<TRIPOS>MOLECULE
../data/bude_mols_rdkit_confs2/molecule_39.pdb
 35 36 0 0 0
SMALL
GASTEIGER

@<TRIPOS>ATOM
      1 C           6.6410    0.1530    0.0360 C.3     1  UNL1       -0.0397
      2 C           5.1430    0.1900    0.0610 C.ar    1  UNL1       -0.0504
      3 C           4.5360    1.2980   -0.4730 C.ar    1  UNL1       -0.0585
      4 C           3.1540    1.3600   -0.4600 C.ar    1  UNL1       -0.0561
      5 C           2.3790    0.3520    0.0700 C.ar    1  UNL1       -0.0196
      6 C           0.9150    0.4320    0.0980 C.3     1  UNL1        0.0983
      7 O           0.4230   -0.1080   -1.1200 O.3     1  UNL1       -0.2749
      8 N          -0.9410    0.0090   -1.0230 N.am    1  UNL1       -0.1902
      9 C          -1.6510   -1.0070   -0.3510 C.2     1  UNL1        0.2669
     10 O          -1.0350   -1.9870    0.1160 O.2     1  UNL1       -0.2681
     11 C          -3.1000   -0.8600   -0.2240 C.ar    1  UNL1        0.0451
     12 C          -3.9840   -1.6570   -0.8800 C.ar    1  UNL1       -0.0491
     13 C          -5.3470   -1.4700   -0.7170 C.ar    1  UNL1       -0.0546
     14 C          -5.7960   -0.4550    0.1260 C.ar    1  UNL1        0.0156
     15 C          -4.8840    0.3570    0.7940 C.ar    1  UNL1        0.2739
     16 N          -5.3610    1.3890    1.6540 N.pl3   1  UNL1        0.0796
     17 O          -4.5570    2.1160    2.2570 O.2     1  UNL1        0.0414
     18 O          -6.6990    1.5810    1.8150 O.co2   1  UNL1       -0.5760
     19 C          -3.5410    0.1430    0.6090 C.ar    1  UNL1        0.0277
     20 C           2.9980   -0.7530    0.6020 C.ar    1  UNL1       -0.0561
     21 C           4.3960   -0.8290    0.5950 C.ar    1  UNL1       -0.0585
     22 H           7.0122    1.0453   -0.4233 H       1  UNL1        0.0278
     23 H           6.9675   -0.6986   -0.5236 H       1  UNL1        0.0278
     24 H           7.0129    0.0859    1.0371 H       1  UNL1        0.0278
     25 H           5.0962    2.0662   -0.8744 H       1  UNL1        0.0620
     26 H           2.6881    2.1891   -0.8607 H       1  UNL1        0.0621
     27 H           0.6088    1.4529    0.1926 H       1  UNL1        0.0634
     28 H           0.5284   -0.1169    0.9312 H       1  UNL1        0.0634
     29 H          -1.4110    0.7816   -1.4122 H       1  UNL1        0.1828
     30 H          -3.6386   -2.4045   -1.5020 H       1  UNL1        0.0625
     31 H          -6.0208   -2.0741   -1.2131 H       1  UNL1        0.0620
     32 H          -6.8088   -0.3049    0.2554 H       1  UNL1        0.0685
     33 H          -2.8558    0.7394    1.0988 H       1  UNL1        0.0693
     34 H           2.4372   -1.5207    1.0035 H       1  UNL1        0.0621
     35 H           4.8670   -1.6561    0.9938 H       1  UNL1        0.0620
@<TRIPOS>UNITY_ATOM_ATTR
16 1
charge 1
18 1
charge -1
@<TRIPOS>BOND
     1     1     2    1
     2     2     3   ar
     3     2    21   ar
     4     3     4   ar
     5     4     5   ar
     6     5     6    1
     7     5    20   ar
     8     6     7    1
     9     7     8    1
    10     8     9   am
    11     9    10    2
    12     9    11    1
    13    11    12   ar
    14    11    19   ar
    15    12    13   ar
    16    13    14   ar
    17    14    15   ar
    18    15    16    1
    19    15    19   ar
    20    16    17    2
    21    16    18    1
    22    20    21   ar
    23     1    22    1
    24     1    23    1
    25     1    24    1
    26     3    25    1
    27     4    26    1
    28     6    27    1
    29     6    28    1
    30     8    29    1
    31    12    30    1
    32    13    31    1
    33    14    32    1
    34    19    33    1
    35    20    34    1
    36    21    35    1
@<TRIPOS>MOLECULE
../data/bude_mols_rdkit_confs2/molecule_39.pdb
 35 36 0 0 0
SMALL
GASTEIGER

@<TRIPOS>ATOM
      1 C           6.8440   -0.2490   -0.6440 C.3     1  UNL1       -0.0397
      2 C           5.3950   -0.0050   -0.4080 C.ar    1  UNL1       -0.0504
      3 C           4.6680   -1.0310    0.1700 C.ar    1  UNL1       -0.0585
      4 C           3.3130   -0.9270    0.4400 C.ar    1  UNL1       -0.0561
      5 C           2.6780    0.2550    0.1130 C.ar    1  UNL1       -0.0196
      6 C           1.2410    0.4590    0.3630 C.3     1  UNL1        0.0983
      7 O           0.4340   -0.2920   -0.5220 O.3     1  UNL1       -0.2749
      8 N          -0.8370    0.0060   -0.2000 N.am    1  UNL1       -0.1902
      9 C          -1.9140   -0.9160   -0.1000 C.2     1  UNL1        0.2669
     10 O          -1.6590   -2.1300   -0.3290 O.2     1  UNL1       -0.2681
     11 C          -3.2700   -0.4520    0.2560 C.ar    1  UNL1        0.0451
     12 C          -3.5440    0.1660    1.4510 C.ar    1  UNL1       -0.0491
     13 C          -4.8100    0.6280    1.7710 C.ar    1  UNL1       -0.0546
     14 C          -5.8440    0.4730    0.8720 C.ar    1  UNL1        0.0156
     15 C          -5.5820   -0.1510   -0.3460 C.ar    1  UNL1        0.2739
     16 N          -6.6400   -0.3070   -1.2760 N.pl3   1  UNL1        0.0796
     17 O          -6.4000   -0.8730   -2.3540 O.2     1  UNL1        0.0414
     18 O          -7.8960    0.1490   -1.0030 O.co2   1  UNL1       -0.5760
     19 C          -4.2970   -0.6090   -0.6440 C.ar    1  UNL1        0.0277
     20 C           3.4270    1.2780   -0.4700 C.ar    1  UNL1       -0.0561
     21 C           4.7730    1.1630   -0.7330 C.ar    1  UNL1       -0.0585
     22 H           7.0994   -1.2324   -0.3085 H       1  UNL1        0.0278
     23 H           7.4199    0.4729   -0.1036 H       1  UNL1        0.0278
     24 H           7.0545   -0.1629   -1.6895 H       1  UNL1        0.0278
     25 H           5.1547   -1.9089    0.4096 H       1  UNL1        0.0620
     26 H           2.7947   -1.7080    0.8718 H       1  UNL1        0.0621
     27 H           1.0137    1.4973    0.2399 H       1  UNL1        0.0634
     28 H           1.0306    0.1302    1.3592 H       1  UNL1        0.0634
     29 H          -1.0407    0.9515   -0.0163 H       1  UNL1        0.1828
     30 H          -2.7806    0.2906    2.1342 H       1  UNL1        0.0625
     31 H          -4.9789    1.0870    2.6798 H       1  UNL1        0.0620
     32 H          -6.7924    0.8122    1.0967 H       1  UNL1        0.0685
     33 H          -4.1165   -1.0702   -1.5494 H       1  UNL1        0.0693
     34 H           2.9504    2.1600   -0.7148 H       1  UNL1        0.0621
     35 H           5.2970    1.9403   -1.1646 H       1  UNL1        0.0620
@<TRIPOS>UNITY_ATOM_ATTR
16 1
charge 1
18 1
charge -1
@<TRIPOS>BOND
     1     1     2    1
     2     2     3   ar
     3     2    21   ar
     4     3     4   ar
     5     4     5   ar
     6     5     6    1
     7     5    20   ar
     8     6     7    1
     9     7     8    1
    10     8     9   am
    11     9    10    2
    12     9    11    1
    13    11    12   ar
    14    11    19   ar
    15    12    13   ar
    16    13    14   ar
    17    14    15   ar
    18    15    16    1
    19    15    19   ar
    20    16    17    2
    21    16    18    1
    22    20    21   ar
    23     1    22    1
    24     1    23    1
    25     1    24    1
    26     3    25    1
    27     4    26    1
    28     6    27    1
    29     6    28    1
    30     8    29    1
    31    12    30    1
    32    13    31    1
    33    14    32    1
    34    19    33    1
    35    20    34    1
    36    21    35    1
@<TRIPOS>MOLECULE
../data/bude_mols_rdkit_confs2/molecule_39.pdb
 35 36 0 0 0
SMALL
GASTEIGER

@<TRIPOS>ATOM
      1 C          -6.7390    0.2160    0.1060 C.3     1  UNL1       -0.0397
      2 C          -5.2480    0.0790    0.0740 C.ar    1  UNL1       -0.0504
      3 C          -4.5090   -0.1160    1.2450 C.ar    1  UNL1       -0.0585
      4 C          -3.1370   -0.2400    1.2200 C.ar    1  UNL1       -0.0561
      5 C          -2.4800   -0.1700    0.0100 C.ar    1  UNL1       -0.0196
      6 C          -0.9940   -0.3080    0.0280 C.3     1  UNL1        0.0983
      7 O          -0.4080    0.6970    0.7510 O.3     1  UNL1       -0.2749
      8 N           0.9200    0.5520    0.7770 N.am    1  UNL1       -0.1902
      9 C           1.7090    0.6590   -0.3940 C.2     1  UNL1        0.2669
     10 O           1.1970    0.8920   -1.5410 O.2     1  UNL1       -0.2681
     11 C           3.1410    0.4940   -0.2430 C.ar    1  UNL1        0.0451
     12 C           3.8730    1.5540    0.2370 C.ar    1  UNL1       -0.0491
     13 C           5.2380    1.4510    0.4000 C.ar    1  UNL1       -0.0546
     14 C           5.8440    0.2650    0.0710 C.ar    1  UNL1        0.0156
     15 C           5.1170   -0.8050   -0.4120 C.ar    1  UNL1        0.2739
     16 N           5.7830   -2.0190   -0.7400 N.pl3   1  UNL1        0.0796
     17 O           7.0280   -2.1210   -0.5950 O.2     1  UNL1        0.0414
     18 O           5.1330   -3.1260   -1.2220 O.co2   1  UNL1       -0.5760
     19 C           3.7480   -0.6870   -0.5690 C.ar    1  UNL1        0.0277
     20 C          -3.2110    0.0200   -1.1320 C.ar    1  UNL1       -0.0561
     21 C          -4.5990    0.1480   -1.1340 C.ar    1  UNL1       -0.0585
     22 H          -7.0826    0.1395    1.1164 H       1  UNL1        0.0278
     23 H          -7.1813   -0.5617   -0.4810 H       1  UNL1        0.0278
     24 H          -7.0184    1.1680   -0.2946 H       1  UNL1        0.0278
     25 H          -5.0031   -0.1683    2.1495 H       1  UNL1        0.0620
     26 H          -2.6086   -0.3833    2.0948 H       1  UNL1        0.0621
     27 H          -0.6288   -0.2725   -0.9771 H       1  UNL1        0.0634
     28 H          -0.7478   -1.2420    0.4884 H       1  UNL1        0.0634
     29 H           1.3632    0.3652    1.6360 H       1  UNL1        0.1828
     30 H           3.3954    2.4365    0.4780 H       1  UNL1        0.0625
     31 H           5.7896    2.2454    0.7601 H       1  UNL1        0.0620
     32 H           6.8651    0.1705    0.1870 H       1  UNL1        0.0685
     33 H           3.1923   -1.4794   -0.9273 H       1  UNL1        0.0693
     34 H          -2.7110    0.0708   -2.0334 H       1  UNL1        0.0621
     35 H          -5.1208    0.2897   -2.0130 H       1  UNL1        0.0620
@<TRIPOS>UNITY_ATOM_ATTR
16 1
charge 1
18 1
charge -1
@<TRIPOS>BOND
     1     1     2    1
     2     2     3   ar
     3     2    21   ar
     4     3     4   ar
     5     4     5   ar
     6     5     6    1
     7     5    20   ar
     8     6     7    1
     9     7     8    1
    10     8     9   am
    11     9    10    2
    12     9    11    1
    13    11    12   ar
    14    11    19   ar
    15    12    13   ar
    16    13    14   ar
    17    14    15   ar
    18    15    16    1
    19    15    19   ar
    20    16    17    2
    21    16    18    1
    22    20    21   ar
    23     1    22    1
    24     1    23    1
    25     1    24    1
    26     3    25    1
    27     4    26    1
    28     6    27    1
    29     6    28    1
    30     8    29    1
    31    12    30    1
    32    13    31    1
    33    14    32    1
    34    19    33    1
    35    20    34    1
    36    21    35    1
@<TRIPOS>MOLECULE
../data/bude_mols_rdkit_confs2/molecule_39.pdb
 35 36 0 0 0
SMALL
GASTEIGER

@<TRIPOS>ATOM
      1 C           6.7680   -0.4950   -0.6070 C.3     1  UNL1       -0.0397
      2 C           5.3350   -0.3040   -0.2410 C.ar    1  UNL1       -0.0504
      3 C           4.8750   -0.3300    1.0550 C.ar    1  UNL1       -0.0585
      4 C           3.5390   -0.1550    1.3670 C.ar    1  UNL1       -0.0561
      5 C           2.6070    0.0560    0.3740 C.ar    1  UNL1       -0.0196
      6 C           1.1420    0.2560    0.6550 C.3     1  UNL1        0.0983
      7 O           0.5190    0.4220   -0.5490 O.3     1  UNL1       -0.2749
      8 N          -0.7820    0.6350   -0.5480 N.am    1  UNL1       -0.1902
      9 C          -1.7350   -0.2960   -0.0580 C.2     1  UNL1        0.2669
     10 O          -1.3930   -1.4170    0.4240 O.2     1  UNL1       -0.2681
     11 C          -3.1560    0.0760   -0.1220 C.ar    1  UNL1        0.0451
     12 C          -3.5080    1.4120   -0.1550 C.ar    1  UNL1       -0.0491
     13 C          -4.8470    1.7850   -0.2320 C.ar    1  UNL1       -0.0546
     14 C          -5.8270    0.8210   -0.2750 C.ar    1  UNL1        0.0156
     15 C          -5.4950   -0.5230   -0.2430 C.ar    1  UNL1        0.2739
     16 N          -6.5240   -1.4890   -0.2910 N.pl3   1  UNL1        0.0796
     17 O          -6.2160   -2.6920   -0.2570 O.2     1  UNL1        0.0414
     18 O          -7.8370   -1.1530   -0.3720 O.co2   1  UNL1       -0.5760
     19 C          -4.1660   -0.8550   -0.1680 C.ar    1  UNL1        0.0277
     20 C           3.0760    0.0830   -0.9350 C.ar    1  UNL1       -0.0561
     21 C           4.4060   -0.0920   -1.2470 C.ar    1  UNL1       -0.0585
     22 H           7.3459   -0.6455    0.2809 H       1  UNL1        0.0278
     23 H           7.1236    0.3734   -1.1211 H       1  UNL1        0.0278
     24 H           6.8627   -1.3500   -1.2434 H       1  UNL1        0.0278
     25 H           5.5495   -0.4853    1.8204 H       1  UNL1        0.0620
     26 H           3.2370   -0.1827    2.3534 H       1  UNL1        0.0621
     27 H           1.0007    1.1245    1.2638 H       1  UNL1        0.0634
     28 H           0.7375   -0.5845    1.1793 H       1  UNL1        0.0634
     29 H          -1.1119    1.4898   -0.9082 H       1  UNL1        0.1828
     30 H          -2.7743    2.1370   -0.1224 H       1  UNL1        0.0625
     31 H          -5.1041    2.7842   -0.2568 H       1  UNL1        0.0620
     32 H          -6.8185    1.1017   -0.3316 H       1  UNL1        0.0685
     33 H          -3.9117   -1.8549   -0.1449 H       1  UNL1        0.0693
     34 H           2.4025    0.2400   -1.7010 H       1  UNL1        0.0621
     35 H           4.7114   -0.0652   -2.2324 H       1  UNL1        0.0620
@<TRIPOS>UNITY_ATOM_ATTR
16 1
charge 1
18 1
charge -1
@<TRIPOS>BOND
     1     1     2    1
     2     2     3   ar
     3     2    21   ar
     4     3     4   ar
     5     4     5   ar
     6     5     6    1
     7     5    20   ar
     8     6     7    1
     9     7     8    1
    10     8     9   am
    11     9    10    2
    12     9    11    1
    13    11    12   ar
    14    11    19   ar
    15    12    13   ar
    16    13    14   ar
    17    14    15   ar
    18    15    16    1
    19    15    19   ar
    20    16    17    2
    21    16    18    1
    22    20    21   ar
    23     1    22    1
    24     1    23    1
    25     1    24    1
    26     3    25    1
    27     4    26    1
    28     6    27    1
    29     6    28    1
    30     8    29    1
    31    12    30    1
    32    13    31    1
    33    14    32    1
    34    19    33    1
    35    20    34    1
    36    21    35    1
@<TRIPOS>MOLECULE
../data/bude_mols_rdkit_confs2/molecule_39.pdb
 35 36 0 0 0
SMALL
GASTEIGER

@<TRIPOS>ATOM
      1 C          -6.7360   -0.2170   -0.0270 C.3     1  UNL1       -0.0397
      2 C          -5.2620   -0.0330    0.1560 C.ar    1  UNL1       -0.0504
      3 C          -4.4600   -1.0520   -0.2590 C.ar    1  UNL1       -0.0585
      4 C          -3.0840   -0.9090   -0.1290 C.ar    1  UNL1       -0.0561
      5 C          -2.4870    0.2230    0.4020 C.ar    1  UNL1       -0.0196
      6 C          -1.0090    0.3700    0.4700 C.3     1  UNL1        0.0983
      7 O          -0.4500   -0.8090    0.0210 O.3     1  UNL1       -0.2749
      8 N           0.8600   -0.8140   -0.0820 N.am    1  UNL1       -0.1902
      9 C           1.8530   -0.3590    0.7740 C.2     1  UNL1        0.2669
     10 O           1.5700    0.1360    1.8600 O.2     1  UNL1       -0.2681
     11 C           3.2620   -0.4630    0.3720 C.ar    1  UNL1        0.0451
     12 C           3.9520   -1.6470    0.3020 C.ar    1  UNL1       -0.0491
     13 C           5.2840   -1.5900   -0.1570 C.ar    1  UNL1       -0.0546
     14 C           5.8750   -0.3900   -0.5230 C.ar    1  UNL1        0.0156
     15 C           5.1700    0.7950   -0.4480 C.ar    1  UNL1        0.2739
     16 N           5.6950    2.0620   -0.8160 N.pl3   1  UNL1        0.0796
     17 O           6.8610    2.1580   -1.2330 O.2     1  UNL1        0.0414
     18 O           4.9300    3.1910   -0.7210 O.co2   1  UNL1       -0.5760
     19 C           3.8720    0.7270    0.0020 C.ar    1  UNL1        0.0277
     20 C          -3.3510    1.2240    0.8090 C.ar    1  UNL1       -0.0561
     21 C          -4.7160    1.1130    0.6940 C.ar    1  UNL1       -0.0585
     22 H          -6.9246   -1.1775   -0.4592 H       1  UNL1        0.0278
     23 H          -7.1129    0.5461   -0.6755 H       1  UNL1        0.0278
     24 H          -7.2243   -0.1511    0.9228 H       1  UNL1        0.0278
     25 H          -4.8652   -1.9117   -0.6613 H       1  UNL1        0.0620
     26 H          -2.4777   -1.6829   -0.4429 H       1  UNL1        0.0621
     27 H          -0.7071    0.5554    1.4797 H       1  UNL1        0.0634
     28 H          -0.6856    1.1923   -0.1335 H       1  UNL1        0.0634
     29 H           1.1978   -1.2122   -0.9166 H       1  UNL1        0.1828
     30 H           3.5146   -2.5413    0.5738 H       1  UNL1        0.0625
     31 H           5.8321   -2.4620   -0.2221 H       1  UNL1        0.0620
     32 H           6.8521   -0.3825   -0.8550 H       1  UNL1        0.0685
     33 H           3.3270    1.6009    0.0674 H       1  UNL1        0.0693
     34 H          -2.9555    2.0867    1.2143 H       1  UNL1        0.0621
     35 H          -5.3281    1.8822    1.0082 H       1  UNL1        0.0620
@<TRIPOS>UNITY_ATOM_ATTR
16 1
charge 1
18 1
charge -1
@<TRIPOS>BOND
     1     1     2    1
     2     2     3   ar
     3     2    21   ar
     4     3     4   ar
     5     4     5   ar
     6     5     6    1
     7     5    20   ar
     8     6     7    1
     9     7     8    1
    10     8     9   am
    11     9    10    2
    12     9    11    1
    13    11    12   ar
    14    11    19   ar
    15    12    13   ar
    16    13    14   ar
    17    14    15   ar
    18    15    16    1
    19    15    19   ar
    20    16    17    2
    21    16    18    1
    22    20    21   ar
    23     1    22    1
    24     1    23    1
    25     1    24    1
    26     3    25    1
    27     4    26    1
    28     6    27    1
    29     6    28    1
    30     8    29    1
    31    12    30    1
    32    13    31    1
    33    14    32    1
    34    19    33    1
    35    20    34    1
    36    21    35    1
@<TRIPOS>MOLECULE
../data/bude_mols_rdkit_confs2/molecule_39.pdb
 35 36 0 0 0
SMALL
GASTEIGER

@<TRIPOS>ATOM
      1 C           4.3790    2.2300   -0.6430 C.3     1  UNL1       -0.0397
      2 C           3.5900    0.9940   -0.2970 C.ar    1  UNL1       -0.0504
      3 C           2.3030    0.8310   -0.7590 C.ar    1  UNL1       -0.0585
      4 C           1.5340   -0.3020   -0.4660 C.ar    1  UNL1       -0.0561
      5 C           2.0660   -1.3020    0.3120 C.ar    1  UNL1       -0.0196
      6 C           1.3320   -2.5500    0.6620 C.3     1  UNL1        0.0983
      7 O           0.4610   -2.3340    1.7090 O.3     1  UNL1       -0.2749
      8 N          -0.4670   -1.4210    1.3350 N.am    1  UNL1       -0.1902
      9 C          -1.5200   -1.7790    0.4300 C.2     1  UNL1        0.2669
     10 O          -1.5170   -2.9660    0.0260 O.2     1  UNL1       -0.2681
     11 C          -2.5210   -0.8110    0.0150 C.ar    1  UNL1        0.0451
     12 C          -3.4470   -1.2320   -0.9360 C.ar    1  UNL1       -0.0491
     13 C          -4.3930   -0.3250   -1.3390 C.ar    1  UNL1       -0.0546
     14 C          -4.4560    0.9620   -0.8420 C.ar    1  UNL1        0.0156
     15 C          -3.5470    1.3940    0.1020 C.ar    1  UNL1        0.2739
     16 N          -3.5610    2.6980    0.6470 N.pl3   1  UNL1        0.0796
     17 O          -2.7160    3.0220    1.4880 O.2     1  UNL1        0.0414
     18 O          -4.5060    3.5870    0.2390 O.co2   1  UNL1       -0.5760
     19 C          -2.5840    0.4700    0.5100 C.ar    1  UNL1        0.0277
     20 C           3.3800   -1.1150    0.7730 C.ar    1  UNL1       -0.0561
     21 C           4.1320   -0.0040    0.4840 C.ar    1  UNL1       -0.0585
     22 H           3.7818    2.8752   -1.2529 H       1  UNL1        0.0278
     23 H           5.2627    1.9509   -1.1778 H       1  UNL1        0.0278
     24 H           4.6528    2.7417    0.2560 H       1  UNL1        0.0278
     25 H           1.8889    1.5732   -1.3443 H       1  UNL1        0.0620
     26 H           0.5729   -0.3855   -0.8324 H       1  UNL1        0.0621
     27 H           2.0375   -3.3036    0.9436 H       1  UNL1        0.0634
     28 H           0.7680   -2.8644   -0.1912 H       1  UNL1        0.0634
     29 H          -0.4181   -0.5032    1.6878 H       1  UNL1        0.1828
     30 H          -3.4222   -2.1887   -1.3221 H       1  UNL1        0.0625
     31 H          -5.0879   -0.6166   -2.0441 H       1  UNL1        0.0620
     32 H          -5.1887    1.6057   -1.1793 H       1  UNL1        0.0685
     33 H          -1.8884    0.7612    1.2145 H       1  UNL1        0.0693
     34 H           3.8018   -1.8518    1.3597 H       1  UNL1        0.0621
     35 H           5.0938    0.0834    0.8478 H       1  UNL1        0.0620
@<TRIPOS>UNITY_ATOM_ATTR
16 1
charge 1
18 1
charge -1
@<TRIPOS>BOND
     1     1     2    1
     2     2     3   ar
     3     2    21   ar
     4     3     4   ar
     5     4     5   ar
     6     5     6    1
     7     5    20   ar
     8     6     7    1
     9     7     8    1
    10     8     9   am
    11     9    10    2
    12     9    11    1
    13    11    12   ar
    14    11    19   ar
    15    12    13   ar
    16    13    14   ar
    17    14    15   ar
    18    15    16    1
    19    15    19   ar
    20    16    17    2
    21    16    18    1
    22    20    21   ar
    23     1    22    1
    24     1    23    1
    25     1    24    1
    26     3    25    1
    27     4    26    1
    28     6    27    1
    29     6    28    1
    30     8    29    1
    31    12    30    1
    32    13    31    1
    33    14    32    1
    34    19    33    1
    35    20    34    1
    36    21    35    1
@<TRIPOS>MOLECULE
../data/bude_mols_rdkit_confs2/molecule_39.pdb
 35 36 0 0 0
SMALL
GASTEIGER

@<TRIPOS>ATOM
      1 C          -6.7380    0.3460    0.2670 C.3     1  UNL1       -0.0397
      2 C          -5.2910   -0.0390    0.2490 C.ar    1  UNL1       -0.0504
      3 C          -4.5570   -0.0190   -0.9170 C.ar    1  UNL1       -0.0585
      4 C          -3.2090   -0.3680   -0.9210 C.ar    1  UNL1       -0.0561
      5 C          -2.5590   -0.7470    0.2340 C.ar    1  UNL1       -0.0196
      6 C          -1.0920   -1.1040    0.2100 C.3     1  UNL1        0.0983
      7 O          -0.4340    0.0640    0.5980 O.3     1  UNL1       -0.2749
      8 N           0.9080   -0.1050    0.5930 N.am    1  UNL1       -0.1902
      9 C           1.7360    0.9110    0.0790 C.2     1  UNL1        0.2669
     10 O           1.1440    1.9680   -0.3630 O.2     1  UNL1       -0.2681
     11 C           3.1560    0.8450    0.0240 C.ar    1  UNL1        0.0451
     12 C           3.8710    2.0180   -0.2570 C.ar    1  UNL1       -0.0491
     13 C           5.2420    2.0290   -0.3340 C.ar    1  UNL1       -0.0546
     14 C           5.8980    0.8320   -0.1230 C.ar    1  UNL1        0.0156
     15 C           5.2030   -0.3500    0.1600 C.ar    1  UNL1        0.2739
     16 N           5.9270   -1.5690    0.3730 N.pl3   1  UNL1        0.0796
     17 O           5.3810   -2.6480    0.6260 O.2     1  UNL1        0.0414
     18 O           7.3100   -1.5350    0.2910 O.co2   1  UNL1       -0.5760
     19 C           3.8260   -0.3390    0.2330 C.ar    1  UNL1        0.0277
     20 C          -3.2990   -0.7650    1.3940 C.ar    1  UNL1       -0.0561
     21 C          -4.6380   -0.4190    1.4020 C.ar    1  UNL1       -0.0585
     22 H          -7.0503    0.6056   -0.7229 H       1  UNL1        0.0278
     23 H          -6.8757    1.1854    0.9161 H       1  UNL1        0.0278
     24 H          -7.3219   -0.4779    0.6207 H       1  UNL1        0.0278
     25 H          -5.0130    0.2587   -1.8002 H       1  UNL1        0.0620
     26 H          -2.6844   -0.3423   -1.8093 H       1  UNL1        0.0621
     27 H          -0.7914   -1.3966   -0.7743 H       1  UNL1        0.0634
     28 H          -0.8664   -1.9276    0.8547 H       1  UNL1        0.0634
     29 H           1.3037   -0.9341    0.9469 H       1  UNL1        0.1828
     30 H           3.3527    2.8972   -0.4101 H       1  UNL1        0.0625
     31 H           5.7612    2.8965   -0.5411 H       1  UNL1        0.0620
     32 H           6.9284    0.8082   -0.1754 H       1  UNL1        0.0685
     33 H           3.3056   -1.2055    0.4412 H       1  UNL1        0.0693
     34 H          -2.8446   -1.0429    2.2779 H       1  UNL1        0.0621
     35 H          -5.1603   -0.4459    2.2916 H       1  UNL1        0.0620
@<TRIPOS>UNITY_ATOM_ATTR
16 1
charge 1
18 1
charge -1
@<TRIPOS>BOND
     1     1     2    1
     2     2     3   ar
     3     2    21   ar
     4     3     4   ar
     5     4     5   ar
     6     5     6    1
     7     5    20   ar
     8     6     7    1
     9     7     8    1
    10     8     9   am
    11     9    10    2
    12     9    11    1
    13    11    12   ar
    14    11    19   ar
    15    12    13   ar
    16    13    14   ar
    17    14    15   ar
    18    15    16    1
    19    15    19   ar
    20    16    17    2
    21    16    18    1
    22    20    21   ar
    23     1    22    1
    24     1    23    1
    25     1    24    1
    26     3    25    1
    27     4    26    1
    28     6    27    1
    29     6    28    1
    30     8    29    1
    31    12    30    1
    32    13    31    1
    33    14    32    1
    34    19    33    1
    35    20    34    1
    36    21    35    1
@<TRIPOS>MOLECULE
../data/bude_mols_rdkit_confs2/molecule_39.pdb
 35 36 0 0 0
SMALL
GASTEIGER

@<TRIPOS>ATOM
      1 C          -6.8830   -0.2550    0.0890 C.3     1  UNL1       -0.0397
      2 C          -5.3780   -0.1670    0.0470 C.ar    1  UNL1       -0.0504
      3 C          -4.6030   -0.9550   -0.7660 C.ar    1  UNL1       -0.0585
      4 C          -3.2150   -0.8260   -0.7720 C.ar    1  UNL1       -0.0561
      5 C          -2.5650    0.0890    0.0300 C.ar    1  UNL1       -0.0196
      6 C          -1.1250    0.3410    0.0680 C.3     1  UNL1        0.0983
      7 O          -0.4370   -0.4920   -0.7850 O.3     1  UNL1       -0.2749
      8 N           0.8830   -0.2070   -0.8000 N.am    1  UNL1       -0.1902
      9 C           1.8120   -0.3960    0.2240 C.2     1  UNL1        0.2669
     10 O           1.4020   -0.9280    1.3170 O.2     1  UNL1       -0.2681
     11 C           3.2070   -0.0010    0.0610 C.ar    1  UNL1        0.0451
     12 C           3.5260    1.2030   -0.5740 C.ar    1  UNL1       -0.0491
     13 C           4.8440    1.5830   -0.7360 C.ar    1  UNL1       -0.0546
     14 C           5.8600    0.7740   -0.2710 C.ar    1  UNL1        0.0156
     15 C           5.5460   -0.4210    0.3630 C.ar    1  UNL1        0.2739
     16 N           6.5880   -1.2630    0.8290 N.pl3   1  UNL1        0.0796
     17 O           7.7760   -0.9190    0.7010 O.2     1  UNL1        0.0414
     18 O           6.3330   -2.4680    1.4310 O.co2   1  UNL1       -0.5760
     19 C           4.2060   -0.7980    0.5210 C.ar    1  UNL1        0.0277
     20 C          -3.3910    0.8680    0.8410 C.ar    1  UNL1       -0.0561
     21 C          -4.7660    0.7430    0.8480 C.ar    1  UNL1       -0.0585
     22 H          -7.2152   -1.0112   -0.5912 H       1  UNL1        0.0278
     23 H          -7.3034    0.6878   -0.1927 H       1  UNL1        0.0278
     24 H          -7.1982   -0.5040    1.0808 H       1  UNL1        0.0278
     25 H          -5.0530   -1.6515   -1.3804 H       1  UNL1        0.0620
     26 H          -2.6579   -1.4323   -1.3941 H       1  UNL1        0.0621
     27 H          -0.7721    0.1830    1.0657 H       1  UNL1        0.0634
     28 H          -0.9559    1.3502   -0.2448 H       1  UNL1        0.0634
     29 H           1.2322    0.1812   -1.6346 H       1  UNL1        0.1828
     30 H           2.7707    1.8127   -0.9245 H       1  UNL1        0.0625
     31 H           5.0691    2.4739   -1.2058 H       1  UNL1        0.0620
     32 H           6.8456    1.0546   -0.3933 H       1  UNL1        0.0685
     33 H           3.9762   -1.6879    0.9904 H       1  UNL1        0.0693
     34 H          -2.9555    1.5676    1.4622 H       1  UNL1        0.0621
     35 H          -5.3324    1.3450    1.4659 H       1  UNL1        0.0620
@<TRIPOS>UNITY_ATOM_ATTR
16 1
charge 1
18 1
charge -1
@<TRIPOS>BOND
     1     1     2    1
     2     2     3   ar
     3     2    21   ar
     4     3     4   ar
     5     4     5   ar
     6     5     6    1
     7     5    20   ar
     8     6     7    1
     9     7     8    1
    10     8     9   am
    11     9    10    2
    12     9    11    1
    13    11    12   ar
    14    11    19   ar
    15    12    13   ar
    16    13    14   ar
    17    14    15   ar
    18    15    16    1
    19    15    19   ar
    20    16    17    2
    21    16    18    1
    22    20    21   ar
    23     1    22    1
    24     1    23    1
    25     1    24    1
    26     3    25    1
    27     4    26    1
    28     6    27    1
    29     6    28    1
    30     8    29    1
    31    12    30    1
    32    13    31    1
    33    14    32    1
    34    19    33    1
    35    20    34    1
    36    21    35    1
@<TRIPOS>MOLECULE
../data/bude_mols_rdkit_confs2/molecule_39.pdb
 35 36 0 0 0
SMALL
GASTEIGER

@<TRIPOS>ATOM
      1 C          -4.4530    1.7530    0.0920 C.3     1  UNL1       -0.0397
      2 C          -3.5830    0.5520    0.1550 C.ar    1  UNL1       -0.0504
      3 C          -3.6700   -0.4710   -0.7820 C.ar    1  UNL1       -0.0585
      4 C          -2.8350   -1.5700   -0.6760 C.ar    1  UNL1       -0.0561
      5 C          -1.9080   -1.6810    0.3440 C.ar    1  UNL1       -0.0196
      6 C          -1.0350   -2.8760    0.4150 C.3     1  UNL1        0.0983
      7 O          -0.0250   -2.7140    1.2950 O.3     1  UNL1       -0.2749
      8 N           0.8530   -1.7560    1.1450 N.am    1  UNL1       -0.1902
      9 C           1.0590   -1.0630   -0.0590 C.2     1  UNL1        0.2669
     10 O           0.3810   -1.3520   -1.0580 O.2     1  UNL1       -0.2681
     11 C           2.0420    0.0070   -0.2270 C.ar    1  UNL1        0.0451
     12 C           1.7820    0.9680   -1.1890 C.ar    1  UNL1       -0.0491
     13 C           2.6430    2.0180   -1.4500 C.ar    1  UNL1       -0.0546
     14 C           3.8190    2.1100   -0.7130 C.ar    1  UNL1        0.0156
     15 C           4.0670    1.1300    0.2560 C.ar    1  UNL1        0.2739
     16 N           5.2830    1.2240    1.0090 N.pl3   1  UNL1        0.0796
     17 O           6.0890    2.1390    0.8250 O.2     1  UNL1        0.0414
     18 O           5.5850    0.2860    1.9650 O.co2   1  UNL1       -0.5760
     19 C           3.1980    0.1070    0.4890 C.ar    1  UNL1        0.0277
     20 C          -1.8490   -0.6500    1.2530 C.ar    1  UNL1       -0.0561
     21 C          -2.6740    0.4590    1.1680 C.ar    1  UNL1       -0.0585
     22 H          -5.1059    1.6766   -0.7523 H       1  UNL1        0.0278
     23 H          -3.8457    2.6286   -0.0048 H       1  UNL1        0.0278
     24 H          -5.0346    1.8195    0.9877 H       1  UNL1        0.0278
     25 H          -4.3536   -0.4115   -1.5528 H       1  UNL1        0.0620
     26 H          -2.9061   -2.3253   -1.3757 H       1  UNL1        0.0621
     27 H          -0.6218   -3.0598   -0.5547 H       1  UNL1        0.0634
     28 H          -1.6311   -3.7010    0.7451 H       1  UNL1        0.0634
     29 H           1.4023   -1.5058    1.9228 H       1  UNL1        0.1828
     30 H           0.9087    0.8977   -1.7344 H       1  UNL1        0.0625
     31 H           2.4182    2.7173   -2.1749 H       1  UNL1        0.0620
     32 H           4.4890    2.8779   -0.8755 H       1  UNL1        0.0685
     33 H           3.4160   -0.5965    1.2119 H       1  UNL1        0.0693
     34 H          -1.1663   -0.7050    2.0249 H       1  UNL1        0.0621
     35 H          -2.6014    1.2129    1.8690 H       1  UNL1        0.0620
@<TRIPOS>UNITY_ATOM_ATTR
16 1
charge 1
18 1
charge -1
@<TRIPOS>BOND
     1     1     2    1
     2     2     3   ar
     3     2    21   ar
     4     3     4   ar
     5     4     5   ar
     6     5     6    1
     7     5    20   ar
     8     6     7    1
     9     7     8    1
    10     8     9   am
    11     9    10    2
    12     9    11    1
    13    11    12   ar
    14    11    19   ar
    15    12    13   ar
    16    13    14   ar
    17    14    15   ar
    18    15    16    1
    19    15    19   ar
    20    16    17    2
    21    16    18    1
    22    20    21   ar
    23     1    22    1
    24     1    23    1
    25     1    24    1
    26     3    25    1
    27     4    26    1
    28     6    27    1
    29     6    28    1
    30     8    29    1
    31    12    30    1
    32    13    31    1
    33    14    32    1
    34    19    33    1
    35    20    34    1
    36    21    35    1
@<TRIPOS>MOLECULE
../data/bude_mols_rdkit_confs2/molecule_39.pdb
 35 36 0 0 0
SMALL
GASTEIGER

@<TRIPOS>ATOM
      1 C          -6.7300    0.1550   -0.1980 C.3     1  UNL1       -0.0397
      2 C          -5.2700   -0.0140   -0.0910 C.ar    1  UNL1       -0.0504
      3 C          -4.3680    0.9440   -0.4790 C.ar    1  UNL1       -0.0585
      4 C          -3.0010    0.7190   -0.3580 C.ar    1  UNL1       -0.0561
      5 C          -2.5080   -0.4700    0.1540 C.ar    1  UNL1       -0.0196
      6 C          -1.0450   -0.6980    0.2710 C.3     1  UNL1        0.0983
      7 O          -0.5370    0.2590    1.1360 O.3     1  UNL1       -0.2749
      8 N           0.8110    0.1210    1.3060 N.am    1  UNL1       -0.1902
      9 C           1.6740    0.4270    0.2280 C.2     1  UNL1        0.2669
     10 O           1.1440    0.8190   -0.8440 O.2     1  UNL1       -0.2681
     11 C           3.1310    0.3080    0.3100 C.ar    1  UNL1        0.0451
     12 C           3.7800   -0.0230    1.4710 C.ar    1  UNL1       -0.0491
     13 C           5.1690   -0.1410    1.5330 C.ar    1  UNL1       -0.0546
     14 C           5.9030    0.0830    0.3920 C.ar    1  UNL1        0.0156
     15 C           5.2890    0.4150   -0.7870 C.ar    1  UNL1        0.2739
     16 N           6.0720    0.6450   -1.9750 N.pl3   1  UNL1        0.0796
     17 O           5.5130    0.9510   -3.0460 O.2     1  UNL1        0.0414
     18 O           7.4370    0.5300   -1.9380 O.co2   1  UNL1       -0.5760
     19 C           3.9190    0.5240   -0.8160 C.ar    1  UNL1        0.0277
     20 C          -3.4470   -1.4010    0.5310 C.ar    1  UNL1       -0.0561
     21 C          -4.8030   -1.2110    0.4250 C.ar    1  UNL1       -0.0585
     22 H          -6.9483    1.1183   -0.6094 H       1  UNL1        0.0278
     23 H          -7.1706    0.0740    0.7737 H       1  UNL1        0.0278
     24 H          -7.1312   -0.6046   -0.8360 H       1  UNL1        0.0278
     25 H          -4.7069    1.8395   -0.8641 H       1  UNL1        0.0620
     26 H          -2.3399    1.4533   -0.6559 H       1  UNL1        0.0621
     27 H          -0.5834   -0.6027   -0.6896 H       1  UNL1        0.0634
     28 H          -0.8476   -1.6817    0.6428 H       1  UNL1        0.0634
     29 H           1.1768   -0.1871    2.1665 H       1  UNL1        0.1828
     30 H           3.2248   -0.1899    2.3248 H       1  UNL1        0.0625
     31 H           5.6365   -0.3916    2.4183 H       1  UNL1        0.0620
     32 H           6.9311   -0.0001    0.4242 H       1  UNL1        0.0685
     33 H           3.4586    0.7750   -1.7048 H       1  UNL1        0.0693
     34 H          -3.1123   -2.2975    0.9173 H       1  UNL1        0.0621
     35 H          -5.4617   -1.9468    0.7244 H       1  UNL1        0.0620
@<TRIPOS>UNITY_ATOM_ATTR
16 1
charge 1
18 1
charge -1
@<TRIPOS>BOND
     1     1     2    1
     2     2     3   ar
     3     2    21   ar
     4     3     4   ar
     5     4     5   ar
     6     5     6    1
     7     5    20   ar
     8     6     7    1
     9     7     8    1
    10     8     9   am
    11     9    10    2
    12     9    11    1
    13    11    12   ar
    14    11    19   ar
    15    12    13   ar
    16    13    14   ar
    17    14    15   ar
    18    15    16    1
    19    15    19   ar
    20    16    17    2
    21    16    18    1
    22    20    21   ar
    23     1    22    1
    24     1    23    1
    25     1    24    1
    26     3    25    1
    27     4    26    1
    28     6    27    1
    29     6    28    1
    30     8    29    1
    31    12    30    1
    32    13    31    1
    33    14    32    1
    34    19    33    1
    35    20    34    1
    36    21    35    1
@<TRIPOS>MOLECULE
../data/bude_mols_rdkit_confs2/molecule_39.pdb
 35 36 0 0 0
SMALL
GASTEIGER

@<TRIPOS>ATOM
      1 C          -6.7890    0.7160    0.2690 C.3     1  UNL1       -0.0397
      2 C          -5.3680    0.2550    0.2490 C.ar    1  UNL1       -0.0504
      3 C          -4.9410   -0.6250   -0.7230 C.ar    1  UNL1       -0.0585
      4 C          -3.6250   -1.0600   -0.7500 C.ar    1  UNL1       -0.0561
      5 C          -2.6890   -0.6450    0.1760 C.ar    1  UNL1       -0.0196
      6 C          -1.2740   -1.0850    0.1840 C.3     1  UNL1        0.0983
      7 O          -0.4920   -0.1680   -0.5370 O.3     1  UNL1       -0.2749
      8 N           0.8150   -0.5590   -0.5430 N.am    1  UNL1       -0.1902
      9 C           1.8220    0.3970   -0.2940 C.2     1  UNL1        0.2669
     10 O           1.4420    1.5960   -0.0740 O.2     1  UNL1       -0.2681
     11 C           3.2460    0.0940   -0.2720 C.ar    1  UNL1        0.0451
     12 C           3.7470   -1.1320   -0.5610 C.ar    1  UNL1       -0.0491
     13 C           5.1060   -1.3730   -0.5270 C.ar    1  UNL1       -0.0546
     14 C           5.9940   -0.3530   -0.1920 C.ar    1  UNL1        0.0156
     15 C           5.5010    0.9050    0.1050 C.ar    1  UNL1        0.2739
     16 N           6.3940    1.9440    0.4460 N.pl3   1  UNL1        0.0796
     17 O           7.6110    1.7170    0.4790 O.2     1  UNL1        0.0414
     18 O           5.9670    3.2110    0.7440 O.co2   1  UNL1       -0.5760
     19 C           4.1530    1.0840    0.0550 C.ar    1  UNL1        0.0277
     20 C          -3.1430    0.2480    1.1530 C.ar    1  UNL1       -0.0561
     21 C          -4.4520    0.6790    1.1790 C.ar    1  UNL1       -0.0585
     22 H          -7.3221    0.2637   -0.5410 H       1  UNL1        0.0278
     23 H          -6.8201    1.7806    0.1661 H       1  UNL1        0.0278
     24 H          -7.2425    0.4339    1.1962 H       1  UNL1        0.0278
     25 H          -5.6064   -0.9624   -1.4360 H       1  UNL1        0.0620
     26 H          -3.3343   -1.7184   -1.4896 H       1  UNL1        0.0621
     27 H          -1.1988   -2.0512   -0.2695 H       1  UNL1        0.0634
     28 H          -0.9229   -1.1352    1.1935 H       1  UNL1        0.0634
     29 H           1.0528   -1.4980   -0.7192 H       1  UNL1        0.1828
     30 H           3.1019   -1.8979   -0.8106 H       1  UNL1        0.0625
     31 H           5.4661   -2.3139   -0.7510 H       1  UNL1        0.0620
     32 H           7.0096   -0.5342   -0.1657 H       1  UNL1        0.0685
     33 H           3.7833    2.0218    0.2761 H       1  UNL1        0.0693
     34 H          -2.4839    0.5911    1.8691 H       1  UNL1        0.0621
     35 H          -4.7507    1.3368    1.9160 H       1  UNL1        0.0620
@<TRIPOS>UNITY_ATOM_ATTR
16 1
charge 1
18 1
charge -1
@<TRIPOS>BOND
     1     1     2    1
     2     2     3   ar
     3     2    21   ar
     4     3     4   ar
     5     4     5   ar
     6     5     6    1
     7     5    20   ar
     8     6     7    1
     9     7     8    1
    10     8     9   am
    11     9    10    2
    12     9    11    1
    13    11    12   ar
    14    11    19   ar
    15    12    13   ar
    16    13    14   ar
    17    14    15   ar
    18    15    16    1
    19    15    19   ar
    20    16    17    2
    21    16    18    1
    22    20    21   ar
    23     1    22    1
    24     1    23    1
    25     1    24    1
    26     3    25    1
    27     4    26    1
    28     6    27    1
    29     6    28    1
    30     8    29    1
    31    12    30    1
    32    13    31    1
    33    14    32    1
    34    19    33    1
    35    20    34    1
    36    21    35    1
@<TRIPOS>MOLECULE
../data/bude_mols_rdkit_confs2/molecule_39.pdb
 35 36 0 0 0
SMALL
GASTEIGER

@<TRIPOS>ATOM
      1 C           6.5690   -0.1220   -0.5140 C.3     1  UNL1       -0.0397
      2 C           5.1170   -0.2540   -0.2310 C.ar    1  UNL1       -0.0504
      3 C           4.6680   -0.4780    1.0520 C.ar    1  UNL1       -0.0585
      4 C           3.2990   -0.5880    1.2180 C.ar    1  UNL1       -0.0561
      5 C           2.3840   -0.4890    0.2040 C.ar    1  UNL1       -0.0196
      6 C           0.9180   -0.6170    0.3870 C.3     1  UNL1        0.0983
      7 O           0.4830    0.4410    1.1990 O.3     1  UNL1       -0.2749
      8 N          -0.8980    0.3470    1.2740 N.am    1  UNL1       -0.1902
      9 C          -1.5720    0.9190    0.1670 C.2     1  UNL1        0.2669
     10 O          -0.8750    1.4620   -0.7560 O.2     1  UNL1       -0.2681
     11 C          -3.0110    0.8850    0.0790 C.ar    1  UNL1        0.0451
     12 C          -3.7660    2.0220   -0.0790 C.ar    1  UNL1       -0.0491
     13 C          -5.1340    1.9800   -0.2130 C.ar    1  UNL1       -0.0546
     14 C          -5.7740    0.7580   -0.1890 C.ar    1  UNL1        0.0156
     15 C          -5.0440   -0.4090   -0.0280 C.ar    1  UNL1        0.2739
     16 N          -5.6490   -1.6970   -0.0000 N.pl3   1  UNL1        0.0796
     17 O          -6.8990   -1.7300   -0.1140 O.2     1  UNL1        0.0414
     18 O          -4.9130   -2.8250    0.1410 O.co2   1  UNL1       -0.5760
     19 C          -3.6860   -0.3320    0.1030 C.ar    1  UNL1        0.0277
     20 C           2.8690   -0.2630   -1.0890 C.ar    1  UNL1       -0.0561
     21 C           4.2190   -0.1500   -1.2820 C.ar    1  UNL1       -0.0585
     22 H           7.1208   -0.2260    0.3968 H       1  UNL1        0.0278
     23 H           6.7632    0.8398   -0.9408 H       1  UNL1        0.0278
     24 H           6.8691   -0.8847   -1.2019 H       1  UNL1        0.0278
     25 H           5.3194   -0.5595    1.8483 H       1  UNL1        0.0620
     26 H           2.9427   -0.7563    2.1718 H       1  UNL1        0.0621
     27 H           0.6920   -1.5511    0.8574 H       1  UNL1        0.0634
     28 H           0.4231   -0.5826   -0.5610 H       1  UNL1        0.0634
     29 H          -1.3674   -0.0784    2.0276 H       1  UNL1        0.1828
     30 H          -3.2907    2.9379   -0.0977 H       1  UNL1        0.0625
     31 H          -5.6748    2.8511   -0.3300 H       1  UNL1        0.0620
     32 H          -6.7999    0.7128   -0.2913 H       1  UNL1        0.0685
     33 H          -3.1446   -1.2023    0.2233 H       1  UNL1        0.0693
     34 H           2.2179   -0.1827   -1.8856 H       1  UNL1        0.0621
     35 H           4.5781    0.0170   -2.2350 H       1  UNL1        0.0620
@<TRIPOS>UNITY_ATOM_ATTR
16 1
charge 1
18 1
charge -1
@<TRIPOS>BOND
     1     1     2    1
     2     2     3   ar
     3     2    21   ar
     4     3     4   ar
     5     4     5   ar
     6     5     6    1
     7     5    20   ar
     8     6     7    1
     9     7     8    1
    10     8     9   am
    11     9    10    2
    12     9    11    1
    13    11    12   ar
    14    11    19   ar
    15    12    13   ar
    16    13    14   ar
    17    14    15   ar
    18    15    16    1
    19    15    19   ar
    20    16    17    2
    21    16    18    1
    22    20    21   ar
    23     1    22    1
    24     1    23    1
    25     1    24    1
    26     3    25    1
    27     4    26    1
    28     6    27    1
    29     6    28    1
    30     8    29    1
    31    12    30    1
    32    13    31    1
    33    14    32    1
    34    19    33    1
    35    20    34    1
    36    21    35    1
@<TRIPOS>MOLECULE
../data/bude_mols_rdkit_confs2/molecule_39.pdb
 35 36 0 0 0
SMALL
GASTEIGER

@<TRIPOS>ATOM
      1 C          -6.7240    0.8120   -0.1930 C.3     1  UNL1       -0.0397
      2 C          -5.2640    0.5510   -0.2050 C.ar    1  UNL1       -0.0504
      3 C          -4.4490    1.4950    0.4320 C.ar    1  UNL1       -0.0585
      4 C          -3.0890    1.3230    0.4560 C.ar    1  UNL1       -0.0561
      5 C          -2.4580    0.2270   -0.1380 C.ar    1  UNL1       -0.0196
      6 C          -0.9870    0.1580   -0.0700 C.3     1  UNL1        0.0983
      7 O          -0.4090   -0.8550   -0.7930 O.3     1  UNL1       -0.2749
      8 N           0.9360   -0.7890   -0.6750 N.am    1  UNL1       -0.1902
      9 C           1.6800   -1.0750    0.4860 C.2     1  UNL1        0.2669
     10 O           1.1260   -1.4390    1.5430 O.2     1  UNL1       -0.2681
     11 C           3.1520   -0.9420    0.4430 C.ar    1  UNL1        0.0451
     12 C           4.0010   -1.7910    1.1030 C.ar    1  UNL1       -0.0491
     13 C           5.3680   -1.6540    1.0570 C.ar    1  UNL1       -0.0546
     14 C           5.9140   -0.6030    0.3050 C.ar    1  UNL1        0.0156
     15 C           5.0990    0.2650   -0.3650 C.ar    1  UNL1        0.2739
     16 N           5.6450    1.3300   -1.1310 N.pl3   1  UNL1        0.0796
     17 O           6.8920    1.4700   -1.2000 O.2     1  UNL1        0.0414
     18 O           4.9060    2.2390   -1.8260 O.co2   1  UNL1       -0.5760
     19 C           3.7180    0.1020   -0.3020 C.ar    1  UNL1        0.0277
     20 C          -3.2740   -0.6890   -0.7600 C.ar    1  UNL1       -0.0561
     21 C          -4.6680   -0.5440   -0.8020 C.ar    1  UNL1       -0.0585
     22 H          -6.9192    1.7229    0.3334 H       1  UNL1        0.0278
     23 H          -7.2269    0.0033    0.2949 H       1  UNL1        0.0278
     24 H          -7.0792    0.8980   -1.1986 H       1  UNL1        0.0278
     25 H          -4.8724    2.3207    0.8837 H       1  UNL1        0.0620
     26 H          -2.5083    2.0312    0.9317 H       1  UNL1        0.0621
     27 H          -0.7100    0.0305    0.9556 H       1  UNL1        0.0634
     28 H          -0.6299    1.0689   -0.5032 H       1  UNL1        0.0634
     29 H           1.4420   -0.5159   -1.4742 H       1  UNL1        0.1828
     30 H           3.5985   -2.5636    1.6563 H       1  UNL1        0.0625
     31 H           5.9803   -2.3110    1.5654 H       1  UNL1        0.0620
     32 H           6.9381   -0.4848    0.2576 H       1  UNL1        0.0685
     33 H           3.1035    0.7575   -0.8097 H       1  UNL1        0.0693
     34 H          -2.8452   -1.5119   -1.2116 H       1  UNL1        0.0621
     35 H          -5.2477   -1.2531   -1.2775 H       1  UNL1        0.0620
@<TRIPOS>UNITY_ATOM_ATTR
16 1
charge 1
18 1
charge -1
@<TRIPOS>BOND
     1     1     2    1
     2     2     3   ar
     3     2    21   ar
     4     3     4   ar
     5     4     5   ar
     6     5     6    1
     7     5    20   ar
     8     6     7    1
     9     7     8    1
    10     8     9   am
    11     9    10    2
    12     9    11    1
    13    11    12   ar
    14    11    19   ar
    15    12    13   ar
    16    13    14   ar
    17    14    15   ar
    18    15    16    1
    19    15    19   ar
    20    16    17    2
    21    16    18    1
    22    20    21   ar
    23     1    22    1
    24     1    23    1
    25     1    24    1
    26     3    25    1
    27     4    26    1
    28     6    27    1
    29     6    28    1
    30     8    29    1
    31    12    30    1
    32    13    31    1
    33    14    32    1
    34    19    33    1
    35    20    34    1
    36    21    35    1
@<TRIPOS>MOLECULE
../data/bude_mols_rdkit_confs2/molecule_39.pdb
 35 36 0 0 0
SMALL
GASTEIGER

@<TRIPOS>ATOM
      1 C           4.9220    1.9620    0.3260 C.3     1  UNL1       -0.0397
      2 C           4.0250    0.8060    0.1150 C.ar    1  UNL1       -0.0504
      3 C           3.1280    0.7040   -0.9350 C.ar    1  UNL1       -0.0585
      4 C           2.3160   -0.3900   -1.0880 C.ar    1  UNL1       -0.0561
      5 C           2.3810   -1.4160   -0.1890 C.ar    1  UNL1       -0.0196
      6 C           1.5020   -2.5890   -0.3570 C.3     1  UNL1        0.0983
      7 O           0.3950   -2.4760    0.4750 O.3     1  UNL1       -0.2749
      8 N          -0.3370   -1.3820    0.2020 N.am    1  UNL1       -0.1902
      9 C          -1.7460   -1.4350    0.3250 C.2     1  UNL1        0.2669
     10 O          -2.3030   -2.5170    0.6960 O.2     1  UNL1       -0.2681
     11 C          -2.5810   -0.2740    0.0330 C.ar    1  UNL1        0.0451
     12 C          -2.1170    0.8220   -0.6480 C.ar    1  UNL1       -0.0491
     13 C          -2.9780    1.8860   -0.8840 C.ar    1  UNL1       -0.0546
     14 C          -4.2780    1.8340   -0.4380 C.ar    1  UNL1        0.0156
     15 C          -4.7750    0.7380    0.2540 C.ar    1  UNL1        0.2739
     16 N          -6.1130    0.6900    0.7100 N.pl3   1  UNL1        0.0796
     17 O          -6.8700    1.6330    0.4950 O.2     1  UNL1        0.0414
     18 O          -6.5440   -0.4130    1.3870 O.co2   1  UNL1       -0.5760
     19 C          -3.8970   -0.3020    0.4730 C.ar    1  UNL1        0.0277
     20 C           3.2550   -1.3660    0.8760 C.ar    1  UNL1       -0.0561
     21 C           4.0660   -0.2420    1.0030 C.ar    1  UNL1       -0.0585
     22 H           4.7636    2.6825   -0.4490 H       1  UNL1        0.0278
     23 H           5.9397    1.6324    0.3040 H       1  UNL1        0.0278
     24 H           4.7119    2.4078    1.2758 H       1  UNL1        0.0278
     25 H           3.0691    1.4726   -1.6212 H       1  UNL1        0.0620
     26 H           1.6571   -0.4381   -1.8808 H       1  UNL1        0.0621
     27 H           2.0442   -3.4769   -0.1068 H       1  UNL1        0.0634
     28 H           1.1734   -2.6390   -1.3741 H       1  UNL1        0.0634
     29 H           0.1043   -0.5490   -0.0818 H       1  UNL1        0.1828
     30 H          -1.1407    0.8558   -0.9808 H       1  UNL1        0.0625
     31 H          -2.6417    2.7172   -1.3950 H       1  UNL1        0.0620
     32 H          -4.9030    2.6341   -0.6234 H       1  UNL1        0.0685
     33 H          -4.2313   -1.1339    0.9841 H       1  UNL1        0.0693
     34 H           3.3064   -2.1385    1.5583 H       1  UNL1        0.0621
     35 H           4.7247   -0.1937    1.7960 H       1  UNL1        0.0620
@<TRIPOS>UNITY_ATOM_ATTR
16 1
charge 1
18 1
charge -1
@<TRIPOS>BOND
     1     1     2    1
     2     2     3   ar
     3     2    21   ar
     4     3     4   ar
     5     4     5   ar
     6     5     6    1
     7     5    20   ar
     8     6     7    1
     9     7     8    1
    10     8     9   am
    11     9    10    2
    12     9    11    1
    13    11    12   ar
    14    11    19   ar
    15    12    13   ar
    16    13    14   ar
    17    14    15   ar
    18    15    16    1
    19    15    19   ar
    20    16    17    2
    21    16    18    1
    22    20    21   ar
    23     1    22    1
    24     1    23    1
    25     1    24    1
    26     3    25    1
    27     4    26    1
    28     6    27    1
    29     6    28    1
    30     8    29    1
    31    12    30    1
    32    13    31    1
    33    14    32    1
    34    19    33    1
    35    20    34    1
    36    21    35    1
@<TRIPOS>MOLECULE
../data/bude_mols_rdkit_confs2/molecule_39.pdb
 35 36 0 0 0
SMALL
GASTEIGER

@<TRIPOS>ATOM
      1 C          -6.8110    0.1350    0.5410 C.3     1  UNL1       -0.0397
      2 C          -5.3350   -0.0450    0.4560 C.ar    1  UNL1       -0.0504
      3 C          -4.7560   -0.9380   -0.4250 C.ar    1  UNL1       -0.0585
      4 C          -3.3900   -1.1070   -0.5140 C.ar    1  UNL1       -0.0561
      5 C          -2.5250   -0.3760    0.2890 C.ar    1  UNL1       -0.0196
      6 C          -1.0470   -0.5840    0.1750 C.3     1  UNL1        0.0983
      7 O          -0.3400    0.3980    0.8250 O.3     1  UNL1       -0.2749
      8 N           0.9920    0.2660    0.7480 N.am    1  UNL1       -0.1902
      9 C           1.6910    0.4190   -0.4880 C.2     1  UNL1        0.2669
     10 O           1.0150    0.6870   -1.5360 O.2     1  UNL1       -0.2681
     11 C           3.1350    0.2810   -0.6010 C.ar    1  UNL1        0.0451
     12 C           3.6740    0.0550   -1.8510 C.ar    1  UNL1       -0.0491
     13 C           5.0380   -0.0620   -1.9590 C.ar    1  UNL1       -0.0546
     14 C           5.9020    0.0320   -0.8960 C.ar    1  UNL1        0.0156
     15 C           5.3510    0.2590    0.3540 C.ar    1  UNL1        0.2739
     16 N           6.1690    0.3750    1.5070 N.pl3   1  UNL1        0.0796
     17 O           5.6610    0.5810    2.6170 O.2     1  UNL1        0.0414
     18 O           7.5430    0.2470    1.3330 O.co2   1  UNL1       -0.5760
     19 C           3.9860    0.3780    0.4720 C.ar    1  UNL1        0.0277
     20 C          -3.1030    0.5160    1.1690 C.ar    1  UNL1       -0.0561
     21 C          -4.4820    0.6830    1.2560 C.ar    1  UNL1       -0.0585
     22 H          -7.2908   -0.5181   -0.1577 H       1  UNL1        0.0278
     23 H          -7.0605    1.1496    0.3101 H       1  UNL1        0.0278
     24 H          -7.1422   -0.0971    1.5316 H       1  UNL1        0.0278
     25 H          -5.3676   -1.4988   -1.0386 H       1  UNL1        0.0620
     26 H          -3.0050   -1.7873   -1.1878 H       1  UNL1        0.0621
     27 H          -0.7756   -0.5782   -0.8600 H       1  UNL1        0.0634
     28 H          -0.8079   -1.5219    0.6311 H       1  UNL1        0.0634
     29 H           1.5013    0.0583    1.5645 H       1  UNL1        0.1828
     30 H           3.0681   -0.0240   -2.6827 H       1  UNL1        0.0625
     31 H           5.4377   -0.2307   -2.8954 H       1  UNL1        0.0620
     32 H           6.9217   -0.0628   -1.0236 H       1  UNL1        0.0685
     33 H           3.5841    0.5475    1.4073 H       1  UNL1        0.0693
     34 H          -2.4926    1.0778    1.7829 H       1  UNL1        0.0621
     35 H          -4.8709    1.3617    1.9292 H       1  UNL1        0.0620
@<TRIPOS>UNITY_ATOM_ATTR
16 1
charge 1
18 1
charge -1
@<TRIPOS>BOND
     1     1     2    1
     2     2     3   ar
     3     2    21   ar
     4     3     4   ar
     5     4     5   ar
     6     5     6    1
     7     5    20   ar
     8     6     7    1
     9     7     8    1
    10     8     9   am
    11     9    10    2
    12     9    11    1
    13    11    12   ar
    14    11    19   ar
    15    12    13   ar
    16    13    14   ar
    17    14    15   ar
    18    15    16    1
    19    15    19   ar
    20    16    17    2
    21    16    18    1
    22    20    21   ar
    23     1    22    1
    24     1    23    1
    25     1    24    1
    26     3    25    1
    27     4    26    1
    28     6    27    1
    29     6    28    1
    30     8    29    1
    31    12    30    1
    32    13    31    1
    33    14    32    1
    34    19    33    1
    35    20    34    1
    36    21    35    1
@<TRIPOS>MOLECULE
../data/bude_mols_rdkit_confs2/molecule_39.pdb
 35 36 0 0 0
SMALL
GASTEIGER

@<TRIPOS>ATOM
      1 C           6.7070   -0.4720    0.8750 C.3     1  UNL1       -0.0397
      2 C           5.3090   -0.1900    0.4770 C.ar    1  UNL1       -0.0504
      3 C           4.3090   -1.0040    0.9620 C.ar    1  UNL1       -0.0585
      4 C           3.0050   -0.7710    0.6140 C.ar    1  UNL1       -0.0561
      5 C           2.6220    0.2650   -0.2230 C.ar    1  UNL1       -0.0196
      6 C           1.1960    0.4710   -0.5680 C.3     1  UNL1        0.0983
      7 O           0.4380   -0.4520    0.0940 O.3     1  UNL1       -0.2749
      8 N          -0.8900   -0.3610   -0.1490 N.am    1  UNL1       -0.1902
      9 C          -1.8110   -0.1050    0.8890 C.2     1  UNL1        0.2669
     10 O          -1.3000    0.0320    2.0450 O.2     1  UNL1       -0.2681
     11 C          -3.2560    0.0060    0.7090 C.ar    1  UNL1        0.0451
     12 C          -4.0080    0.3090    1.8300 C.ar    1  UNL1       -0.0491
     13 C          -5.3760    0.4230    1.7200 C.ar    1  UNL1       -0.0546
     14 C          -5.9600    0.2300    0.4860 C.ar    1  UNL1        0.0156
     15 C          -5.2300   -0.0720   -0.6420 C.ar    1  UNL1        0.2739
     16 N          -5.8520   -0.2690   -1.9070 N.pl3   1  UNL1        0.0796
     17 O          -5.1790   -0.5430   -2.9160 O.2     1  UNL1        0.0414
     18 O          -7.2130   -0.1570   -2.0280 O.co2   1  UNL1       -0.5760
     19 C          -3.8630   -0.1810   -0.5060 C.ar    1  UNL1        0.0277
     20 C           3.6440    1.0770   -0.7040 C.ar    1  UNL1       -0.0561
     21 C           4.9510    0.8530   -0.3620 C.ar    1  UNL1       -0.0585
     22 H           6.7285   -1.3227    1.5237 H       1  UNL1        0.0278
     23 H           7.1104    0.3769    1.3865 H       1  UNL1        0.0278
     24 H           7.2924   -0.6740    0.0024 H       1  UNL1        0.0278
     25 H           4.5427   -1.7903    1.5883 H       1  UNL1        0.0620
     26 H           2.2750   -1.3948    0.9920 H       1  UNL1        0.0621
     27 H           1.0622    0.3541   -1.6231 H       1  UNL1        0.0634
     28 H           0.8947    1.4570   -0.2816 H       1  UNL1        0.0634
     29 H          -1.2206   -0.4758   -1.0692 H       1  UNL1        0.1828
     30 H          -3.5469    0.4487    2.7426 H       1  UNL1        0.0625
     31 H          -5.9530    0.6486    2.5454 H       1  UNL1        0.0620
     32 H          -6.9852    0.3153    0.4044 H       1  UNL1        0.0685
     33 H          -3.2870   -0.4070   -1.3319 H       1  UNL1        0.0693
     34 H           3.4127    1.8635   -1.3308 H       1  UNL1        0.0621
     35 H           5.6848    1.4742   -0.7371 H       1  UNL1        0.0620
@<TRIPOS>UNITY_ATOM_ATTR
16 1
charge 1
18 1
charge -1
@<TRIPOS>BOND
     1     1     2    1
     2     2     3   ar
     3     2    21   ar
     4     3     4   ar
     5     4     5   ar
     6     5     6    1
     7     5    20   ar
     8     6     7    1
     9     7     8    1
    10     8     9   am
    11     9    10    2
    12     9    11    1
    13    11    12   ar
    14    11    19   ar
    15    12    13   ar
    16    13    14   ar
    17    14    15   ar
    18    15    16    1
    19    15    19   ar
    20    16    17    2
    21    16    18    1
    22    20    21   ar
    23     1    22    1
    24     1    23    1
    25     1    24    1
    26     3    25    1
    27     4    26    1
    28     6    27    1
    29     6    28    1
    30     8    29    1
    31    12    30    1
    32    13    31    1
    33    14    32    1
    34    19    33    1
    35    20    34    1
    36    21    35    1
@<TRIPOS>MOLECULE
../data/bude_mols_rdkit_confs2/molecule_39.pdb
 35 36 0 0 0
SMALL
GASTEIGER

@<TRIPOS>ATOM
      1 C           4.8440    2.1240    0.5060 C.3     1  UNL1       -0.0397
      2 C           3.9530    0.9630    0.2740 C.ar    1  UNL1       -0.0504
      3 C           4.2880    0.0320   -0.6980 C.ar    1  UNL1       -0.0585
      4 C           3.4980   -1.0660   -0.9640 C.ar    1  UNL1       -0.0561
      5 C           2.3220   -1.2760   -0.2540 C.ar    1  UNL1       -0.0196
      6 C           1.4790   -2.4460   -0.5510 C.3     1  UNL1        0.0983
      7 O           0.4470   -2.2070   -1.4220 O.3     1  UNL1       -0.2749
      8 N          -0.4440   -1.2840   -1.0190 N.am    1  UNL1       -0.1902
      9 C          -1.7370   -1.6300   -0.5940 C.2     1  UNL1        0.2669
     10 O          -1.9790   -2.8980   -0.6250 O.2     1  UNL1       -0.2681
     11 C          -2.7730   -0.7330   -0.1450 C.ar    1  UNL1        0.0451
     12 C          -3.7890   -1.2450    0.6460 C.ar    1  UNL1       -0.0491
     13 C          -4.8370   -0.5030    1.1150 C.ar    1  UNL1       -0.0546
     14 C          -4.9020    0.8330    0.7940 C.ar    1  UNL1        0.0156
     15 C          -3.8950    1.3710    0.0010 C.ar    1  UNL1        0.2739
     16 N          -4.0110    2.7520   -0.3070 N.pl3   1  UNL1        0.0796
     17 O          -4.9540    3.4340    0.1120 O.2     1  UNL1        0.0414
     18 O          -3.0780    3.3620   -1.0790 O.co2   1  UNL1       -0.5760
     19 C          -2.8420    0.5910   -0.4600 C.ar    1  UNL1        0.0277
     20 C           1.9730   -0.3630    0.7150 C.ar    1  UNL1       -0.0561
     21 C           2.7830    0.7330    0.9650 C.ar    1  UNL1       -0.0585
     22 H           5.6816    2.0690   -0.1576 H       1  UNL1        0.0278
     23 H           5.1897    2.1115    1.5185 H       1  UNL1        0.0278
     24 H           4.3041    3.0298    0.3246 H       1  UNL1        0.0278
     25 H           5.1564    0.1655   -1.2394 H       1  UNL1        0.0620
     26 H           3.7818   -1.7365   -1.6953 H       1  UNL1        0.0621
     27 H           1.0624   -2.7980    0.3696 H       1  UNL1        0.0634
     28 H           2.1155   -3.1615   -1.0284 H       1  UNL1        0.0634
     29 H          -0.1814   -0.3352   -1.0220 H       1  UNL1        0.1828
     30 H          -3.7524   -2.2456    0.8958 H       1  UNL1        0.0625
     31 H          -5.5673   -0.9380    1.7002 H       1  UNL1        0.0620
     32 H          -5.6790    1.4213    1.1334 H       1  UNL1        0.0685
     33 H          -2.1067    1.0173   -1.0453 H       1  UNL1        0.0693
     34 H           1.1050   -0.4952    1.2573 H       1  UNL1        0.0621
     35 H           2.4992    1.4029    1.6969 H       1  UNL1        0.0620
@<TRIPOS>UNITY_ATOM_ATTR
16 1
charge 1
18 1
charge -1
@<TRIPOS>BOND
     1     1     2    1
     2     2     3   ar
     3     2    21   ar
     4     3     4   ar
     5     4     5   ar
     6     5     6    1
     7     5    20   ar
     8     6     7    1
     9     7     8    1
    10     8     9   am
    11     9    10    2
    12     9    11    1
    13    11    12   ar
    14    11    19   ar
    15    12    13   ar
    16    13    14   ar
    17    14    15   ar
    18    15    16    1
    19    15    19   ar
    20    16    17    2
    21    16    18    1
    22    20    21   ar
    23     1    22    1
    24     1    23    1
    25     1    24    1
    26     3    25    1
    27     4    26    1
    28     6    27    1
    29     6    28    1
    30     8    29    1
    31    12    30    1
    32    13    31    1
    33    14    32    1
    34    19    33    1
    35    20    34    1
    36    21    35    1
@<TRIPOS>MOLECULE
../data/bude_mols_rdkit_confs2/molecule_39.pdb
 35 36 0 0 0
SMALL
GASTEIGER

@<TRIPOS>ATOM
      1 C           6.8130    0.2000    0.1950 C.3     1  UNL1       -0.0397
      2 C           5.3080    0.2150    0.2280 C.ar    1  UNL1       -0.0504
      3 C           4.5790    0.5900   -0.8780 C.ar    1  UNL1       -0.0585
      4 C           3.2040    0.6060   -0.8300 C.ar    1  UNL1       -0.0561
      5 C           2.4820    0.2590    0.2930 C.ar    1  UNL1       -0.0196
      6 C           1.0020    0.2730    0.3660 C.3     1  UNL1        0.0983
      7 O           0.4290    0.3310   -0.9150 O.3     1  UNL1       -0.2749
      8 N          -0.9230    0.3410   -0.6700 N.am    1  UNL1       -0.1902
      9 C          -1.7240   -0.8270   -0.6540 C.2     1  UNL1        0.2669
     10 O          -1.1720   -1.9310   -0.8790 O.2     1  UNL1       -0.2681
     11 C          -3.1780   -0.7440   -0.3790 C.ar    1  UNL1        0.0451
     12 C          -3.8010   -1.8470    0.1370 C.ar    1  UNL1       -0.0491
     13 C          -5.1670   -1.8310    0.4140 C.ar    1  UNL1       -0.0546
     14 C          -5.8840   -0.6850    0.1600 C.ar    1  UNL1        0.0156
     15 C          -5.2380    0.4290   -0.3650 C.ar    1  UNL1        0.2739
     16 N          -5.9930    1.6160   -0.6280 N.pl3   1  UNL1        0.0796
     17 O          -7.2090    1.6080   -0.3700 O.2     1  UNL1        0.0414
     18 O          -5.3320    2.6970   -1.1440 O.co2   1  UNL1       -0.5760
     19 C          -3.8820    0.4010   -0.6350 C.ar    1  UNL1        0.0277
     20 C           3.2450   -0.1170    1.4000 C.ar    1  UNL1       -0.0561
     21 C           4.6200   -0.1380    1.3670 C.ar    1  UNL1       -0.0585
     22 H           7.1516    0.5043   -0.7733 H       1  UNL1        0.0278
     23 H           7.1644   -0.7894    0.4011 H       1  UNL1        0.0278
     24 H           7.1927    0.8745    0.9338 H       1  UNL1        0.0278
     25 H           5.0659    0.8603   -1.7468 H       1  UNL1        0.0620
     26 H           2.6871    0.8918   -1.6763 H       1  UNL1        0.0621
     27 H           0.6887    1.1285    0.9272 H       1  UNL1        0.0634
     28 H           0.6784   -0.6298    0.8404 H       1  UNL1        0.0634
     29 H          -1.3584    1.2067   -0.4962 H       1  UNL1        0.1828
     30 H          -3.2530   -2.7014    0.3235 H       1  UNL1        0.0625
     31 H          -5.6329   -2.6655    0.8034 H       1  UNL1        0.0620
     32 H          -6.8963   -0.6520    0.3580 H       1  UNL1        0.0685
     33 H          -3.4081    1.2313   -1.0238 H       1  UNL1        0.0693
     34 H           2.7620   -0.3878    2.2709 H       1  UNL1        0.0621
     35 H           5.1440   -0.4228    2.2092 H       1  UNL1        0.0620
@<TRIPOS>UNITY_ATOM_ATTR
16 1
charge 1
18 1
charge -1
@<TRIPOS>BOND
     1     1     2    1
     2     2     3   ar
     3     2    21   ar
     4     3     4   ar
     5     4     5   ar
     6     5     6    1
     7     5    20   ar
     8     6     7    1
     9     7     8    1
    10     8     9   am
    11     9    10    2
    12     9    11    1
    13    11    12   ar
    14    11    19   ar
    15    12    13   ar
    16    13    14   ar
    17    14    15   ar
    18    15    16    1
    19    15    19   ar
    20    16    17    2
    21    16    18    1
    22    20    21   ar
    23     1    22    1
    24     1    23    1
    25     1    24    1
    26     3    25    1
    27     4    26    1
    28     6    27    1
    29     6    28    1
    30     8    29    1
    31    12    30    1
    32    13    31    1
    33    14    32    1
    34    19    33    1
    35    20    34    1
    36    21    35    1
@<TRIPOS>MOLECULE
../data/bude_mols_rdkit_confs2/molecule_39.pdb
 35 36 0 0 0
SMALL
GASTEIGER

@<TRIPOS>ATOM
      1 C          -6.7500   -0.2100   -0.2590 C.3     1  UNL1       -0.0397
      2 C          -5.2610   -0.3210   -0.0570 C.ar    1  UNL1       -0.0504
      3 C          -4.5580   -1.4720   -0.3960 C.ar    1  UNL1       -0.0585
      4 C          -3.1810   -1.5430   -0.1960 C.ar    1  UNL1       -0.0561
      5 C          -2.4980   -0.4770    0.3390 C.ar    1  UNL1       -0.0196
      6 C          -1.0260   -0.5680    0.5480 C.3     1  UNL1        0.0983
      7 O          -0.4130   -0.2730   -0.6550 O.3     1  UNL1       -0.2749
      8 N           0.9400   -0.3120   -0.5680 N.am    1  UNL1       -0.1902
      9 C           1.6270    0.8040   -0.0830 C.2     1  UNL1        0.2669
     10 O           0.9480    1.8170    0.2590 O.2     1  UNL1       -0.2681
     11 C           3.0770    0.8150    0.0310 C.ar    1  UNL1        0.0451
     12 C           3.7240    2.0130    0.3720 C.ar    1  UNL1       -0.0491
     13 C           5.0890    2.1050    0.5070 C.ar    1  UNL1       -0.0546
     14 C           5.8650    0.9820    0.3010 C.ar    1  UNL1        0.0156
     15 C           5.2550   -0.2260   -0.0400 C.ar    1  UNL1        0.2739
     16 N           6.0290   -1.3910   -0.2540 N.pl3   1  UNL1        0.0796
     17 O           5.5340   -2.4860   -0.5630 O.2     1  UNL1        0.0414
     18 O           7.3910   -1.3080   -0.1150 O.co2   1  UNL1       -0.5760
     19 C           3.8860   -0.2710   -0.1640 C.ar    1  UNL1        0.0277
     20 C          -3.2100    0.6700    0.6740 C.ar    1  UNL1       -0.0561
     21 C          -4.5700    0.7440    0.4780 C.ar    1  UNL1       -0.0585
     22 H          -7.1216   -1.1207   -0.6803 H       1  UNL1        0.0278
     23 H          -6.9603    0.6021   -0.9232 H       1  UNL1        0.0278
     24 H          -7.2255   -0.0326    0.6830 H       1  UNL1        0.0278
     25 H          -5.0597   -2.2791   -0.7985 H       1  UNL1        0.0620
     26 H          -2.6700   -2.4025   -0.4515 H       1  UNL1        0.0621
     27 H          -0.7623   -1.5574    0.8587 H       1  UNL1        0.0634
     28 H          -0.7117    0.1172    1.3073 H       1  UNL1        0.0634
     29 H           1.4330   -1.1183   -0.8437 H       1  UNL1        0.1828
     30 H           3.1525    2.8581    0.5275 H       1  UNL1        0.0625
     31 H           5.5288    3.0038    0.7596 H       1  UNL1        0.0620
     32 H           6.8910    1.0355    0.3987 H       1  UNL1        0.0685
     33 H           3.4465   -1.1698   -0.4171 H       1  UNL1        0.0693
     34 H          -2.7103    1.4785    1.0760 H       1  UNL1        0.0621
     35 H          -5.0772    1.6055    0.7342 H       1  UNL1        0.0620
@<TRIPOS>UNITY_ATOM_ATTR
16 1
charge 1
18 1
charge -1
@<TRIPOS>BOND
     1     1     2    1
     2     2     3   ar
     3     2    21   ar
     4     3     4   ar
     5     4     5   ar
     6     5     6    1
     7     5    20   ar
     8     6     7    1
     9     7     8    1
    10     8     9   am
    11     9    10    2
    12     9    11    1
    13    11    12   ar
    14    11    19   ar
    15    12    13   ar
    16    13    14   ar
    17    14    15   ar
    18    15    16    1
    19    15    19   ar
    20    16    17    2
    21    16    18    1
    22    20    21   ar
    23     1    22    1
    24     1    23    1
    25     1    24    1
    26     3    25    1
    27     4    26    1
    28     6    27    1
    29     6    28    1
    30     8    29    1
    31    12    30    1
    32    13    31    1
    33    14    32    1
    34    19    33    1
    35    20    34    1
    36    21    35    1
@<TRIPOS>MOLECULE
../data/bude_mols_rdkit_confs2/molecule_39.pdb
 35 36 0 0 0
SMALL
GASTEIGER

@<TRIPOS>ATOM
      1 C          -6.6090    0.6320   -0.4710 C.3     1  UNL1       -0.0397
      2 C          -5.1670    0.5540   -0.1610 C.ar    1  UNL1       -0.0504
      3 C          -4.6360    1.1590    0.9560 C.ar    1  UNL1       -0.0585
      4 C          -3.2850    1.0830    1.2100 C.ar    1  UNL1       -0.0561
      5 C          -2.4670    0.3990    0.3410 C.ar    1  UNL1       -0.0196
      6 C          -0.9740    0.3120    0.5610 C.3     1  UNL1        0.0983
      7 O          -0.4300   -0.1660   -0.5960 O.3     1  UNL1       -0.2749
      8 N           0.8810   -0.2600   -0.5360 N.am    1  UNL1       -0.1902
      9 C           1.6520   -1.1310    0.2510 C.2     1  UNL1        0.2669
     10 O           1.1210   -1.9370    1.0150 O.2     1  UNL1       -0.2681
     11 C           3.0900   -1.0430    0.1220 C.ar    1  UNL1        0.0451
     12 C           3.7950   -2.1710   -0.2100 C.ar    1  UNL1       -0.0491
     13 C           5.1670   -2.0420   -0.3420 C.ar    1  UNL1       -0.0546
     14 C           5.7850   -0.8200   -0.1420 C.ar    1  UNL1        0.0156
     15 C           5.0770    0.3170    0.1940 C.ar    1  UNL1        0.2739
     16 N           5.7210    1.5600    0.4070 N.pl3   1  UNL1        0.0796
     17 O           5.0390    2.5490    0.7290 O.2     1  UNL1        0.0414
     18 O           7.0710    1.7190    0.2690 O.co2   1  UNL1       -0.5760
     19 C           3.7010    0.1770    0.3220 C.ar    1  UNL1        0.0277
     20 C          -3.0080   -0.2100   -0.7850 C.ar    1  UNL1       -0.0561
     21 C          -4.3580   -0.1390   -1.0450 C.ar    1  UNL1       -0.0585
     22 H          -7.1079    1.1928    0.2916 H       1  UNL1        0.0278
     23 H          -7.0187   -0.3556   -0.5132 H       1  UNL1        0.0278
     24 H          -6.7451    1.1153   -1.4159 H       1  UNL1        0.0278
     25 H          -5.2531    1.6714    1.6054 H       1  UNL1        0.0620
     26 H          -2.8882    1.5367    2.0477 H       1  UNL1        0.0621
     27 H          -0.7596   -0.3536    1.3709 H       1  UNL1        0.0634
     28 H          -0.5668    1.2701    0.8085 H       1  UNL1        0.0634
     29 H           1.3842    0.3571   -1.1149 H       1  UNL1        0.1828
     30 H           3.3232   -3.0773   -0.3553 H       1  UNL1        0.0625
     31 H           5.7353   -2.8663   -0.5923 H       1  UNL1        0.0620
     32 H           6.8096   -0.7563   -0.2475 H       1  UNL1        0.0685
     33 H           3.1274    0.9981    0.5705 H       1  UNL1        0.0693
     34 H          -2.3901   -0.7217   -1.4342 H       1  UNL1        0.0621
     35 H          -4.7583   -0.5927   -1.8810 H       1  UNL1        0.0620
@<TRIPOS>UNITY_ATOM_ATTR
16 1
charge 1
18 1
charge -1
@<TRIPOS>BOND
     1     1     2    1
     2     2     3   ar
     3     2    21   ar
     4     3     4   ar
     5     4     5   ar
     6     5     6    1
     7     5    20   ar
     8     6     7    1
     9     7     8    1
    10     8     9   am
    11     9    10    2
    12     9    11    1
    13    11    12   ar
    14    11    19   ar
    15    12    13   ar
    16    13    14   ar
    17    14    15   ar
    18    15    16    1
    19    15    19   ar
    20    16    17    2
    21    16    18    1
    22    20    21   ar
    23     1    22    1
    24     1    23    1
    25     1    24    1
    26     3    25    1
    27     4    26    1
    28     6    27    1
    29     6    28    1
    30     8    29    1
    31    12    30    1
    32    13    31    1
    33    14    32    1
    34    19    33    1
    35    20    34    1
    36    21    35    1
@<TRIPOS>MOLECULE
../data/bude_mols_rdkit_confs2/molecule_39.pdb
 35 36 0 0 0
SMALL
GASTEIGER

@<TRIPOS>ATOM
      1 C          -6.7960   -0.1700    0.2910 C.3     1  UNL1       -0.0397
      2 C          -5.3340    0.0870    0.2340 C.ar    1  UNL1       -0.0504
      3 C          -4.8870    1.3370   -0.1930 C.ar    1  UNL1       -0.0585
      4 C          -3.5410    1.6380   -0.2960 C.ar    1  UNL1       -0.0561
      5 C          -2.5960    0.6930    0.0260 C.ar    1  UNL1       -0.0196
      6 C          -1.1270    0.9750   -0.1500 C.3     1  UNL1        0.0983
      7 O          -0.5020   -0.2480   -0.1810 O.3     1  UNL1       -0.2749
      8 N           0.7790   -0.2880   -0.4490 N.am    1  UNL1       -0.1902
      9 C           1.7990   -0.5210    0.5010 C.2     1  UNL1        0.2669
     10 O           1.5570   -0.6910    1.7150 O.2     1  UNL1       -0.2681
     11 C           3.1850   -0.5670    0.0110 C.ar    1  UNL1        0.0451
     12 C           3.4250   -1.0220   -1.2760 C.ar    1  UNL1       -0.0491
     13 C           4.7300   -1.0190   -1.7230 C.ar    1  UNL1       -0.0546
     14 C           5.7800   -0.5870   -0.9480 C.ar    1  UNL1        0.0156
     15 C           5.5250   -0.1360    0.3320 C.ar    1  UNL1        0.2739
     16 N           6.5450    0.3120    1.1970 N.pl3   1  UNL1        0.0796
     17 O           7.7240    0.3570    0.7530 O.2     1  UNL1        0.0414
     18 O           6.2770    0.7010    2.4650 O.co2   1  UNL1       -0.5760
     19 C           4.2170   -0.1400    0.7820 C.ar    1  UNL1        0.0277
     20 C          -3.0460   -0.5370    0.4480 C.ar    1  UNL1       -0.0561
     21 C          -4.3850   -0.8420    0.5530 C.ar    1  UNL1       -0.0585
     22 H          -7.3249    0.7118   -0.0050 H       1  UNL1        0.0278
     23 H          -7.0731   -0.4335    1.2903 H       1  UNL1        0.0278
     24 H          -7.0430   -0.9733   -0.3712 H       1  UNL1        0.0278
     25 H          -5.5816    2.0593   -0.4396 H       1  UNL1        0.0620
     26 H          -3.2455    2.5739   -0.6152 H       1  UNL1        0.0621
     27 H          -0.7607    1.5579    0.6691 H       1  UNL1        0.0634
     28 H          -0.9415    1.5300   -1.0458 H       1  UNL1        0.0634
     29 H           1.0525   -0.1448   -1.3838 H       1  UNL1        0.1828
     30 H           2.6546   -1.3514   -1.8786 H       1  UNL1        0.0625
     31 H           4.9262   -1.3550   -2.6788 H       1  UNL1        0.0620
     32 H           6.7437   -0.5995   -1.3170 H       1  UNL1        0.0685
     33 H           4.0188    0.1937    1.7383 H       1  UNL1        0.0693
     34 H          -2.3524   -1.2599    0.6957 H       1  UNL1        0.0621
     35 H          -4.6733   -1.7791    0.8750 H       1  UNL1        0.0620
@<TRIPOS>UNITY_ATOM_ATTR
16 1
charge 1
18 1
charge -1
@<TRIPOS>BOND
     1     1     2    1
     2     2     3   ar
     3     2    21   ar
     4     3     4   ar
     5     4     5   ar
     6     5     6    1
     7     5    20   ar
     8     6     7    1
     9     7     8    1
    10     8     9   am
    11     9    10    2
    12     9    11    1
    13    11    12   ar
    14    11    19   ar
    15    12    13   ar
    16    13    14   ar
    17    14    15   ar
    18    15    16    1
    19    15    19   ar
    20    16    17    2
    21    16    18    1
    22    20    21   ar
    23     1    22    1
    24     1    23    1
    25     1    24    1
    26     3    25    1
    27     4    26    1
    28     6    27    1
    29     6    28    1
    30     8    29    1
    31    12    30    1
    32    13    31    1
    33    14    32    1
    34    19    33    1
    35    20    34    1
    36    21    35    1
@<TRIPOS>MOLECULE
../data/bude_mols_rdkit_confs2/molecule_39.pdb
 35 36 0 0 0
SMALL
GASTEIGER

@<TRIPOS>ATOM
      1 C           6.7730   -0.1830    0.3440 C.3     1  UNL1       -0.0397
      2 C           5.2870    0.0500    0.2740 C.ar    1  UNL1       -0.0504
      3 C           4.7470    1.3130    0.4700 C.ar    1  UNL1       -0.0585
      4 C           3.3910    1.5470    0.4220 C.ar    1  UNL1       -0.0561
      5 C           2.5370    0.5040    0.1730 C.ar    1  UNL1       -0.0196
      6 C           1.0480    0.7490    0.1370 C.3     1  UNL1        0.0983
      7 O           0.5490   -0.1970   -0.7840 O.3     1  UNL1       -0.2749
      8 N          -0.7900    0.0170   -0.8130 N.am    1  UNL1       -0.1902
      9 C          -1.7210   -0.8660   -0.2310 C.2     1  UNL1        0.2669
     10 O          -1.2870   -1.8900    0.3340 O.2     1  UNL1       -0.2681
     11 C          -3.1630   -0.5600   -0.3010 C.ar    1  UNL1        0.0451
     12 C          -3.8170   -0.2760   -1.4720 C.ar    1  UNL1       -0.0491
     13 C          -5.1810    0.0250   -1.5030 C.ar    1  UNL1       -0.0546
     14 C          -5.9190    0.0450   -0.3410 C.ar    1  UNL1        0.0156
     15 C          -5.2650   -0.2400    0.8490 C.ar    1  UNL1        0.2739
     16 N          -5.9870   -0.2170    2.0590 N.pl3   1  UNL1        0.0796
     17 O          -5.4090   -0.4580    3.1370 O.2     1  UNL1        0.0414
     18 O          -7.3160    0.0660    2.1230 O.co2   1  UNL1       -0.5760
     19 C          -3.9160   -0.5370    0.8750 C.ar    1  UNL1        0.0277
     20 C           3.0400   -0.7660   -0.0290 C.ar    1  UNL1       -0.0561
     21 C           4.4020   -0.9600    0.0270 C.ar    1  UNL1       -0.0585
     22 H           7.2700    0.7426    0.5468 H       1  UNL1        0.0278
     23 H           7.1169   -0.5753   -0.5902 H       1  UNL1        0.0278
     24 H           6.9880   -0.8819    1.1252 H       1  UNL1        0.0278
     25 H           5.3831    2.1036    0.6581 H       1  UNL1        0.0620
     26 H           3.0210    2.4986    0.5721 H       1  UNL1        0.0621
     27 H           0.8377    1.7445   -0.1940 H       1  UNL1        0.0634
     28 H           0.5987    0.6482    1.1028 H       1  UNL1        0.0634
     29 H          -1.1268    0.8263   -1.2612 H       1  UNL1        0.1828
     30 H          -3.2860   -0.2848   -2.3569 H       1  UNL1        0.0625
     31 H          -5.6388    0.2340   -2.4040 H       1  UNL1        0.0620
     32 H          -6.9272    0.2651   -0.3546 H       1  UNL1        0.0685
     33 H          -3.4582   -0.7448    1.7763 H       1  UNL1        0.0693
     34 H           2.4052   -1.5572   -0.2189 H       1  UNL1        0.0621
     35 H           4.7706   -1.9119   -0.1246 H       1  UNL1        0.0620
@<TRIPOS>UNITY_ATOM_ATTR
16 1
charge 1
18 1
charge -1
@<TRIPOS>BOND
     1     1     2    1
     2     2     3   ar
     3     2    21   ar
     4     3     4   ar
     5     4     5   ar
     6     5     6    1
     7     5    20   ar
     8     6     7    1
     9     7     8    1
    10     8     9   am
    11     9    10    2
    12     9    11    1
    13    11    12   ar
    14    11    19   ar
    15    12    13   ar
    16    13    14   ar
    17    14    15   ar
    18    15    16    1
    19    15    19   ar
    20    16    17    2
    21    16    18    1
    22    20    21   ar
    23     1    22    1
    24     1    23    1
    25     1    24    1
    26     3    25    1
    27     4    26    1
    28     6    27    1
    29     6    28    1
    30     8    29    1
    31    12    30    1
    32    13    31    1
    33    14    32    1
    34    19    33    1
    35    20    34    1
    36    21    35    1
@<TRIPOS>MOLECULE
../data/bude_mols_rdkit_confs2/molecule_39.pdb
 35 36 0 0 0
SMALL
GASTEIGER

@<TRIPOS>ATOM
      1 C           6.7360    0.6370    0.2810 C.3     1  UNL1       -0.0397
      2 C           5.2880    0.3590    0.0680 C.ar    1  UNL1       -0.0504
      3 C           4.5100   -0.2060    1.0550 C.ar    1  UNL1       -0.0585
      4 C           3.1580   -0.4670    0.8750 C.ar    1  UNL1       -0.0561
      5 C           2.5370   -0.1650   -0.3180 C.ar    1  UNL1       -0.0196
      6 C           1.0830   -0.4260   -0.5450 C.3     1  UNL1        0.0983
      7 O           0.4890   -1.0160    0.5410 O.3     1  UNL1       -0.2749
      8 N          -0.8160   -1.2100    0.2700 N.am    1  UNL1       -0.1902
      9 C          -1.7560   -0.1710    0.4650 C.2     1  UNL1        0.2669
     10 O          -1.3310    0.9560    0.8990 O.2     1  UNL1       -0.2681
     11 C          -3.1710   -0.3140    0.1990 C.ar    1  UNL1        0.0451
     12 C          -3.7150   -1.5570   -0.0400 C.ar    1  UNL1       -0.0491
     13 C          -5.0700   -1.6270   -0.2860 C.ar    1  UNL1       -0.0546
     14 C          -5.8610   -0.5000   -0.2940 C.ar    1  UNL1        0.0156
     15 C          -5.3240    0.7580   -0.0550 C.ar    1  UNL1        0.2739
     16 N          -6.1380    1.9260   -0.0620 N.pl3   1  UNL1        0.0796
     17 O          -7.3590    1.8560   -0.2820 O.2     1  UNL1        0.0414
     18 O          -5.5780    3.1370    0.1740 O.co2   1  UNL1       -0.5760
     19 C          -3.9750    0.8260    0.1900 C.ar    1  UNL1        0.0277
     20 C           3.3130    0.3980   -1.3050 C.ar    1  UNL1       -0.0561
     21 C           4.6620    0.6600   -1.1250 C.ar    1  UNL1       -0.0585
     22 H           7.0170    0.3297    1.2667 H       1  UNL1        0.0278
     23 H           6.9182    1.6854    0.1688 H       1  UNL1        0.0278
     24 H           7.3129    0.0956   -0.4394 H       1  UNL1        0.0278
     25 H           4.9471   -0.4434    1.9592 H       1  UNL1        0.0620
     26 H           2.6129   -0.8912    1.6418 H       1  UNL1        0.0621
     27 H           0.9765   -1.0732   -1.3904 H       1  UNL1        0.0634
     28 H           0.6017    0.5148   -0.7131 H       1  UNL1        0.0634
     29 H          -1.1188   -2.0839   -0.0673 H       1  UNL1        0.1828
     30 H          -3.1287   -2.4063   -0.0351 H       1  UNL1        0.0625
     31 H          -5.5017   -2.5464   -0.4685 H       1  UNL1        0.0620
     32 H          -6.8717   -0.5920   -0.4811 H       1  UNL1        0.0685
     33 H          -3.5438    1.7457    0.3725 H       1  UNL1        0.0693
     34 H           2.8758    0.6331   -2.2098 H       1  UNL1        0.0621
     35 H           5.2053    1.0854   -1.8924 H       1  UNL1        0.0620
@<TRIPOS>UNITY_ATOM_ATTR
16 1
charge 1
18 1
charge -1
@<TRIPOS>BOND
     1     1     2    1
     2     2     3   ar
     3     2    21   ar
     4     3     4   ar
     5     4     5   ar
     6     5     6    1
     7     5    20   ar
     8     6     7    1
     9     7     8    1
    10     8     9   am
    11     9    10    2
    12     9    11    1
    13    11    12   ar
    14    11    19   ar
    15    12    13   ar
    16    13    14   ar
    17    14    15   ar
    18    15    16    1
    19    15    19   ar
    20    16    17    2
    21    16    18    1
    22    20    21   ar
    23     1    22    1
    24     1    23    1
    25     1    24    1
    26     3    25    1
    27     4    26    1
    28     6    27    1
    29     6    28    1
    30     8    29    1
    31    12    30    1
    32    13    31    1
    33    14    32    1
    34    19    33    1
    35    20    34    1
    36    21    35    1
