@<TRIPOS>MOLECULE
../data/bude_mols_rdkit_confs2/molecule_68.pdb
 36 38 0 0 0
SMALL
GASTEIGER

@<TRIPOS>ATOM
      1 O           0.3490   -1.9530    0.3150 O.2     1  UNL1       -0.2651
      2 C           0.2080   -0.7700   -0.0770 C.2     1  UNL1        0.3005
      3 N          -1.0930   -0.2610   -0.2390 N.am    1  UNL1       -0.2298
      4 N          -2.2400   -1.0070    0.0230 N.pl3   1  UNL1       -0.2639
      5 C          -3.5150   -0.3950    0.2540 C.ar    1  UNL1        0.0508
      6 C          -3.6390    0.5350    1.2510 C.ar    1  UNL1       -0.0390
      7 C          -4.8530    1.1270    1.5040 C.ar    1  UNL1       -0.0536
      8 C          -5.9810    0.8100    0.7730 C.ar    1  UNL1        0.0157
      9 C          -5.8670   -0.1200   -0.2260 C.ar    1  UNL1        0.2750
     10 N          -7.0160   -0.4730   -1.0010 N.pl3   1  UNL1        0.0797
     11 O          -8.0990    0.0570   -0.7530 O.2     1  UNL1        0.0414
     12 O          -6.8580   -1.4150   -2.0140 O.co2   1  UNL1       -0.5760
     13 C          -4.6310   -0.7200   -0.4830 C.ar    1  UNL1        0.0379
     14 C           1.4080    0.0330   -0.3470 C.2     1  UNL1        0.2507
     15 O           1.2520    1.2270   -0.7590 O.2     1  UNL1       -0.2816
     16 C           2.7500   -0.4730   -0.1600 C.ar    1  UNL1        0.0519
     17 C           3.1780   -1.7510    0.1710 C.ar    1  UNL1        0.0137
     18 N           4.5300   -1.7580    0.2400 N.ar    1  UNL1       -0.3599
     19 C           5.0060   -0.5100   -0.0390 C.ar    1  UNL1        0.0472
     20 C           6.2940   -0.0140   -0.0890 C.ar    1  UNL1       -0.0378
     21 C           6.5330    1.3100   -0.3930 C.ar    1  UNL1       -0.0598
     22 C           5.4480    2.1140   -0.6430 C.ar    1  UNL1       -0.0611
     23 C           4.1650    1.6140   -0.5910 C.ar    1  UNL1       -0.0519
     24 C           3.9040    0.2780   -0.2840 C.ar    1  UNL1        0.0106
     25 H          -1.1981    0.6664   -0.5524 H       1  UNL1        0.1731
     26 H          -2.1723   -1.9888    0.0504 H       1  UNL1        0.1700
     27 H          -2.8152    0.7932    1.8164 H       1  UNL1        0.0636
     28 H          -4.9236    1.8264    2.2596 H       1  UNL1        0.0620
     29 H          -6.8865    1.2622    0.9743 H       1  UNL1        0.0685
     30 H          -4.5539   -1.4188   -1.2385 H       1  UNL1        0.0704
     31 H           2.5649   -2.5643    0.3376 H       1  UNL1        0.0814
     32 H           5.0840   -2.5421    0.4578 H       1  UNL1        0.1654
     33 H           7.0891   -0.6430    0.1039 H       1  UNL1        0.0638
     34 H           7.4942    1.6837   -0.4313 H       1  UNL1        0.0618
     35 H           5.5960    3.1090   -0.8736 H       1  UNL1        0.0618
     36 H           3.3731    2.2467   -0.7850 H       1  UNL1        0.0624
@<TRIPOS>UNITY_ATOM_ATTR
10 1
charge 1
12 1
charge -1
@<TRIPOS>BOND
     1     1     2    2
     2     2     3   am
     3     2    14    1
     4     3     4    1
     5     4     5    1
     6     5     6   ar
     7     5    13   ar
     8     6     7   ar
     9     7     8   ar
    10     8     9   ar
    11     9    10    1
    12     9    13   ar
    13    10    11    2
    14    10    12    1
    15    14    15    2
    16    14    16    1
    17    16    17   ar
    18    16    24   ar
    19    17    18   ar
    20    18    19   ar
    21    19    20   ar
    22    19    24   ar
    23    20    21   ar
    24    21    22   ar
    25    22    23   ar
    26    23    24   ar
    27     3    25    1
    28     4    26    1
    29     6    27    1
    30     7    28    1
    31     8    29    1
    32    13    30    1
    33    17    31    1
    34    18    32    1
    35    20    33    1
    36    21    34    1
    37    22    35    1
    38    23    36    1
@<TRIPOS>MOLECULE
../data/bude_mols_rdkit_confs2/molecule_68.pdb
 36 38 0 0 0
SMALL
GASTEIGER

@<TRIPOS>ATOM
      1 O           0.6310   -1.1020   -0.1540 O.2     1  UNL1       -0.2651
      2 C           0.3310    0.0940   -0.3610 C.2     1  UNL1        0.3005
      3 N          -1.0520    0.3190   -0.7180 N.am    1  UNL1       -0.2298
      4 N          -1.9730   -0.7190   -0.8270 N.pl3   1  UNL1       -0.2639
      5 C          -3.2290   -0.6710   -0.1460 C.ar    1  UNL1        0.0508
      6 C          -3.4280   -1.2970    1.0570 C.ar    1  UNL1       -0.0390
      7 C          -4.6610   -1.2080    1.6690 C.ar    1  UNL1       -0.0536
      8 C          -5.7110   -0.5110    1.1200 C.ar    1  UNL1        0.0157
      9 C          -5.4770    0.1140   -0.1030 C.ar    1  UNL1        0.2750
     10 N          -6.5390    0.8480   -0.6960 N.pl3   1  UNL1        0.0797
     11 O          -6.3510    1.4240   -1.7820 O.2     1  UNL1        0.0414
     12 O          -7.7720    0.9570   -0.1290 O.co2   1  UNL1       -0.5760
     13 C          -4.2680    0.0420   -0.7300 C.ar    1  UNL1        0.0379
     14 C           1.2590    1.1720   -0.2600 C.2     1  UNL1        0.2507
     15 O           0.7590    2.3800   -0.4050 O.2     1  UNL1       -0.2816
     16 C           2.6820    1.1360   -0.0120 C.ar    1  UNL1        0.0519
     17 C           3.3690    2.0690    0.8090 C.ar    1  UNL1        0.0137
     18 N           4.6540    1.7250    0.8890 N.ar    1  UNL1       -0.3599
     19 C           4.8860    0.6050    0.1650 C.ar    1  UNL1        0.0472
     20 C           6.0230   -0.1310   -0.0850 C.ar    1  UNL1       -0.0378
     21 C           5.9300   -1.2360   -0.9030 C.ar    1  UNL1       -0.0598
     22 C           4.7280   -1.5920   -1.4550 C.ar    1  UNL1       -0.0611
     23 C           3.5930   -0.8740   -1.2180 C.ar    1  UNL1       -0.0519
     24 C           3.6500    0.2420   -0.3970 C.ar    1  UNL1        0.0106
     25 H          -1.3533    1.2403   -0.8903 H       1  UNL1        0.1731
     26 H          -1.7552   -1.5012   -1.3838 H       1  UNL1        0.1700
     27 H          -2.6632   -1.8295    1.5004 H       1  UNL1        0.0636
     28 H          -4.8007   -1.6832    2.5744 H       1  UNL1        0.0620
     29 H          -6.6276   -0.4535    1.5907 H       1  UNL1        0.0685
     30 H          -4.1256    0.5159   -1.6356 H       1  UNL1        0.0704
     31 H           2.9402    2.8859    1.2715 H       1  UNL1        0.0814
     32 H           5.3369    2.2153    1.4014 H       1  UNL1        0.1654
     33 H           6.9272    0.1399    0.3323 H       1  UNL1        0.0638
     34 H           6.7718   -1.7992   -1.1011 H       1  UNL1        0.0618
     35 H           4.6801   -2.4233   -2.0647 H       1  UNL1        0.0618
     36 H           2.6985   -1.1591   -1.6464 H       1  UNL1        0.0624
@<TRIPOS>UNITY_ATOM_ATTR
10 1
charge 1
12 1
charge -1
@<TRIPOS>BOND
     1     1     2    2
     2     2     3   am
     3     2    14    1
     4     3     4    1
     5     4     5    1
     6     5     6   ar
     7     5    13   ar
     8     6     7   ar
     9     7     8   ar
    10     8     9   ar
    11     9    10    1
    12     9    13   ar
    13    10    11    2
    14    10    12    1
    15    14    15    2
    16    14    16    1
    17    16    17   ar
    18    16    24   ar
    19    17    18   ar
    20    18    19   ar
    21    19    20   ar
    22    19    24   ar
    23    20    21   ar
    24    21    22   ar
    25    22    23   ar
    26    23    24   ar
    27     3    25    1
    28     4    26    1
    29     6    27    1
    30     7    28    1
    31     8    29    1
    32    13    30    1
    33    17    31    1
    34    18    32    1
    35    20    33    1
    36    21    34    1
    37    22    35    1
    38    23    36    1
@<TRIPOS>MOLECULE
../data/bude_mols_rdkit_confs2/molecule_68.pdb
 36 38 0 0 0
SMALL
GASTEIGER

@<TRIPOS>ATOM
      1 O          -0.2020    0.1140    1.8540 O.2     1  UNL1       -0.2651
      2 C          -0.1520   -0.4000    0.7200 C.2     1  UNL1        0.3005
      3 N           1.1110   -0.8850    0.2650 N.am    1  UNL1       -0.2298
      4 N           2.2710   -0.8010    1.0440 N.pl3   1  UNL1       -0.2639
      5 C           3.5180   -0.5140    0.4410 C.ar    1  UNL1        0.0508
      6 C           4.3060   -1.5450   -0.0070 C.ar    1  UNL1       -0.0390
      7 C           5.5430   -1.2870   -0.6060 C.ar    1  UNL1       -0.0536
      8 C           5.9520    0.0270   -0.7360 C.ar    1  UNL1        0.0157
      9 C           5.1780    1.0790   -0.2940 C.ar    1  UNL1        0.2750
     10 N           5.6090    2.4250   -0.4330 N.pl3   1  UNL1        0.0797
     11 O           6.7130    2.6430   -0.9690 O.2     1  UNL1        0.0414
     12 O           4.8170    3.4460    0.0170 O.co2   1  UNL1       -0.5760
     13 C           3.9460    0.7810    0.3010 C.ar    1  UNL1        0.0379
     14 C          -1.2920   -0.5320   -0.1590 C.2     1  UNL1        0.2507
     15 O          -1.1500   -1.0710   -1.3040 O.2     1  UNL1       -0.2816
     16 C          -2.5880   -0.0450    0.2840 C.ar    1  UNL1        0.0519
     17 C          -2.9630    0.5550    1.4470 C.ar    1  UNL1        0.0137
     18 N          -4.2920    0.8180    1.3680 N.ar    1  UNL1       -0.3599
     19 C          -4.7730    0.4070    0.1970 C.ar    1  UNL1        0.0472
     20 C          -6.0520    0.4530   -0.3470 C.ar    1  UNL1       -0.0378
     21 C          -6.3040   -0.0490   -1.6060 C.ar    1  UNL1       -0.0598
     22 C          -5.2750   -0.6030   -2.3330 C.ar    1  UNL1       -0.0611
     23 C          -4.0120   -0.6390   -1.7760 C.ar    1  UNL1       -0.0519
     24 C          -3.7360   -0.1440   -0.5200 C.ar    1  UNL1        0.0106
     25 H           1.1684   -1.2933   -0.6290 H       1  UNL1        0.1731
     26 H           2.2187   -0.9424    2.0169 H       1  UNL1        0.1700
     27 H           3.9826   -2.5192    0.0992 H       1  UNL1        0.0636
     28 H           6.1373   -2.0603   -0.9435 H       1  UNL1        0.0620
     29 H           6.8635    0.2265   -1.1769 H       1  UNL1        0.0685
     30 H           3.3486    1.5509    0.6407 H       1  UNL1        0.0704
     31 H          -2.3467    0.7712    2.2460 H       1  UNL1        0.0814
     32 H          -4.8236    1.2504    2.0748 H       1  UNL1        0.1654
     33 H          -6.8228    0.8685    0.1991 H       1  UNL1        0.0638
     34 H          -7.2569   -0.0097   -2.0003 H       1  UNL1        0.0618
     35 H          -5.4442   -0.9844   -3.2769 H       1  UNL1        0.0618
     36 H          -3.2421   -1.0542   -2.3236 H       1  UNL1        0.0624
@<TRIPOS>UNITY_ATOM_ATTR
10 1
charge 1
12 1
charge -1
@<TRIPOS>BOND
     1     1     2    2
     2     2     3   am
     3     2    14    1
     4     3     4    1
     5     4     5    1
     6     5     6   ar
     7     5    13   ar
     8     6     7   ar
     9     7     8   ar
    10     8     9   ar
    11     9    10    1
    12     9    13   ar
    13    10    11    2
    14    10    12    1
    15    14    15    2
    16    14    16    1
    17    16    17   ar
    18    16    24   ar
    19    17    18   ar
    20    18    19   ar
    21    19    20   ar
    22    19    24   ar
    23    20    21   ar
    24    21    22   ar
    25    22    23   ar
    26    23    24   ar
    27     3    25    1
    28     4    26    1
    29     6    27    1
    30     7    28    1
    31     8    29    1
    32    13    30    1
    33    17    31    1
    34    18    32    1
    35    20    33    1
    36    21    34    1
    37    22    35    1
    38    23    36    1
@<TRIPOS>MOLECULE
../data/bude_mols_rdkit_confs2/molecule_68.pdb
 36 38 0 0 0
SMALL
GASTEIGER

@<TRIPOS>ATOM
      1 O          -0.5240   -2.0990    0.0550 O.2     1  UNL1       -0.2651
      2 C          -0.2340   -0.8630    0.2980 C.2     1  UNL1        0.3005
      3 N           1.1140   -0.4730    0.4420 N.am    1  UNL1       -0.2298
      4 N           2.1650   -1.3670    0.3060 N.pl3   1  UNL1       -0.2639
      5 C           3.4970   -0.9190    0.1150 C.ar    1  UNL1        0.0508
      6 C           4.4640   -1.8700   -0.2510 C.ar    1  UNL1       -0.0390
      7 C           5.7620   -1.5010   -0.4440 C.ar    1  UNL1       -0.0536
      8 C           6.1450   -0.1860   -0.2810 C.ar    1  UNL1        0.0157
      9 C           5.2220    0.7650    0.0780 C.ar    1  UNL1        0.2750
     10 N           5.5720    2.1340    0.2690 N.pl3   1  UNL1        0.0797
     11 O           4.7150    2.9550    0.6100 O.2     1  UNL1        0.0414
     12 O           6.8580    2.5280    0.0800 O.co2   1  UNL1       -0.5760
     13 C           3.9170    0.3790    0.2680 C.ar    1  UNL1        0.0379
     14 C          -1.3490    0.0580    0.4010 C.2     1  UNL1        0.2507
     15 O          -1.0940    1.2610    0.6320 O.2     1  UNL1       -0.2816
     16 C          -2.7090   -0.3990    0.2340 C.ar    1  UNL1        0.0519
     17 C          -3.2080   -1.6710    0.3930 C.ar    1  UNL1        0.0137
     18 N          -4.5260   -1.5900    0.1360 N.ar    1  UNL1       -0.3599
     19 C          -4.9000   -0.3360   -0.1790 C.ar    1  UNL1        0.0472
     20 C          -6.1250    0.2430   -0.5300 C.ar    1  UNL1       -0.0378
     21 C          -6.2180    1.5860   -0.8230 C.ar    1  UNL1       -0.0598
     22 C          -5.0790    2.3460   -0.7630 C.ar    1  UNL1       -0.0611
     23 C          -3.8680    1.7800   -0.4160 C.ar    1  UNL1       -0.0519
     24 C          -3.7710    0.4500   -0.1250 C.ar    1  UNL1        0.0106
     25 H           1.3159    0.4686    0.6466 H       1  UNL1        0.1731
     26 H           1.9827   -2.3338    0.3428 H       1  UNL1        0.1700
     27 H           4.1892   -2.8570   -0.3749 H       1  UNL1        0.0636
     28 H           6.4621   -2.2096   -0.7136 H       1  UNL1        0.0620
     29 H           7.1298    0.0843   -0.4296 H       1  UNL1        0.0685
     30 H           3.2238    1.0946    0.5369 H       1  UNL1        0.0704
     31 H          -2.6783   -2.5166    0.6563 H       1  UNL1        0.0814
     32 H          -5.1431   -2.3562    0.1738 H       1  UNL1        0.1654
     33 H          -6.9719   -0.3454   -0.5700 H       1  UNL1        0.0638
     34 H          -7.1230    2.0093   -1.0813 H       1  UNL1        0.0618
     35 H          -5.1269    3.3538   -0.9798 H       1  UNL1        0.0618
     36 H          -3.0234    2.3717   -0.3761 H       1  UNL1        0.0624
@<TRIPOS>UNITY_ATOM_ATTR
10 1
charge 1
12 1
charge -1
@<TRIPOS>BOND
     1     1     2    2
     2     2     3   am
     3     2    14    1
     4     3     4    1
     5     4     5    1
     6     5     6   ar
     7     5    13   ar
     8     6     7   ar
     9     7     8   ar
    10     8     9   ar
    11     9    10    1
    12     9    13   ar
    13    10    11    2
    14    10    12    1
    15    14    15    2
    16    14    16    1
    17    16    17   ar
    18    16    24   ar
    19    17    18   ar
    20    18    19   ar
    21    19    20   ar
    22    19    24   ar
    23    20    21   ar
    24    21    22   ar
    25    22    23   ar
    26    23    24   ar
    27     3    25    1
    28     4    26    1
    29     6    27    1
    30     7    28    1
    31     8    29    1
    32    13    30    1
    33    17    31    1
    34    18    32    1
    35    20    33    1
    36    21    34    1
    37    22    35    1
    38    23    36    1
@<TRIPOS>MOLECULE
../data/bude_mols_rdkit_confs2/molecule_68.pdb
 36 38 0 0 0
SMALL
GASTEIGER

@<TRIPOS>ATOM
      1 O           0.6560   -0.7710   -1.3400 O.2     1  UNL1       -0.2651
      2 C           0.3880   -0.8770   -0.1090 C.2     1  UNL1        0.3005
      3 N          -1.0130   -1.0060    0.1730 N.am    1  UNL1       -0.2298
      4 N          -1.9700   -1.0090   -0.8390 N.pl3   1  UNL1       -0.2639
      5 C          -3.3060   -0.6770   -0.5210 C.ar    1  UNL1        0.0508
      6 C          -4.2330   -1.6450   -0.1540 C.ar    1  UNL1       -0.0390
      7 C          -5.5290   -1.2800    0.1490 C.ar    1  UNL1       -0.0536
      8 C          -5.9290    0.0330    0.0960 C.ar    1  UNL1        0.0157
      9 C          -5.0280    0.9950   -0.2640 C.ar    1  UNL1        0.2750
     10 N          -5.4290    2.3720   -0.3240 N.pl3   1  UNL1        0.0797
     11 O          -6.5880    2.6890   -0.0520 O.2     1  UNL1        0.0414
     12 O          -4.5340    3.3470   -0.6830 O.co2   1  UNL1       -0.5760
     13 C          -3.7370    0.6540   -0.5690 C.ar    1  UNL1        0.0379
     14 C           1.3590   -0.8760    0.9510 C.2     1  UNL1        0.2507
     15 O           0.8640   -1.1040    2.1310 O.2     1  UNL1       -0.2816
     16 C           2.7750   -0.6670    0.8890 C.ar    1  UNL1        0.0519
     17 C           3.6830   -1.3760    1.7020 C.ar    1  UNL1        0.0137
     18 N           4.9200   -1.0120    1.3610 N.ar    1  UNL1       -0.3599
     19 C           4.8930   -0.1010    0.3710 C.ar    1  UNL1        0.0472
     20 C           5.8580    0.5960   -0.3210 C.ar    1  UNL1       -0.0378
     21 C           5.5500    1.5120   -1.3050 C.ar    1  UNL1       -0.0598
     22 C           4.2210    1.7290   -1.5950 C.ar    1  UNL1       -0.0611
     23 C           3.2190    1.0340   -0.9080 C.ar    1  UNL1       -0.0519
     24 C           3.5500    0.1190    0.0730 C.ar    1  UNL1        0.0106
     25 H          -1.3062   -1.0949    1.1086 H       1  UNL1        0.1731
     26 H          -1.7191   -1.2392   -1.7627 H       1  UNL1        0.1700
     27 H          -3.9523   -2.6370   -0.1080 H       1  UNL1        0.0636
     28 H          -6.2098   -2.0066    0.4203 H       1  UNL1        0.0620
     29 H          -6.9015    0.2906    0.3261 H       1  UNL1        0.0685
     30 H          -3.0690    1.3927   -0.8395 H       1  UNL1        0.0704
     31 H           3.4335   -2.0588    2.4345 H       1  UNL1        0.0814
     32 H           5.7408   -1.3621    1.7769 H       1  UNL1        0.1654
     33 H           6.8505    0.4264   -0.0945 H       1  UNL1        0.0638
     34 H           6.2935    2.0200   -1.8093 H       1  UNL1        0.0618
     35 H           3.9617    2.4103   -2.3255 H       1  UNL1        0.0618
     36 H           2.2272    1.2060   -1.1355 H       1  UNL1        0.0624
@<TRIPOS>UNITY_ATOM_ATTR
10 1
charge 1
12 1
charge -1
@<TRIPOS>BOND
     1     1     2    2
     2     2     3   am
     3     2    14    1
     4     3     4    1
     5     4     5    1
     6     5     6   ar
     7     5    13   ar
     8     6     7   ar
     9     7     8   ar
    10     8     9   ar
    11     9    10    1
    12     9    13   ar
    13    10    11    2
    14    10    12    1
    15    14    15    2
    16    14    16    1
    17    16    17   ar
    18    16    24   ar
    19    17    18   ar
    20    18    19   ar
    21    19    20   ar
    22    19    24   ar
    23    20    21   ar
    24    21    22   ar
    25    22    23   ar
    26    23    24   ar
    27     3    25    1
    28     4    26    1
    29     6    27    1
    30     7    28    1
    31     8    29    1
    32    13    30    1
    33    17    31    1
    34    18    32    1
    35    20    33    1
    36    21    34    1
    37    22    35    1
    38    23    36    1
@<TRIPOS>MOLECULE
../data/bude_mols_rdkit_confs2/molecule_68.pdb
 36 38 0 0 0
SMALL
GASTEIGER

@<TRIPOS>ATOM
      1 O          -0.1810    2.0180    0.1830 O.2     1  UNL1       -0.2651
      2 C          -0.1400    0.9230   -0.3840 C.2     1  UNL1        0.3005
      3 N           1.1450    0.4090   -0.7170 N.am    1  UNL1       -0.2298
      4 N           2.3180    1.1190   -0.4090 N.pl3   1  UNL1       -0.2639
      5 C           3.4880    0.4580    0.0500 C.ar    1  UNL1        0.0508
      6 C           3.5950    0.2060    1.4010 C.ar    1  UNL1       -0.0390
      7 C           4.6960   -0.4390    1.9410 C.ar    1  UNL1       -0.0536
      8 C           5.7120   -0.8380    1.1000 C.ar    1  UNL1        0.0157
      9 C           5.6390   -0.6010   -0.2600 C.ar    1  UNL1        0.2750
     10 N           6.7000   -1.0210   -1.1060 N.pl3   1  UNL1        0.0797
     11 O           7.6910   -1.6040   -0.6310 O.2     1  UNL1        0.0414
     12 O           6.6240   -0.7820   -2.4480 O.co2   1  UNL1       -0.5760
     13 C           4.5190    0.0480   -0.7640 C.ar    1  UNL1        0.0379
     14 C          -1.3230    0.1300   -0.7280 C.2     1  UNL1        0.2507
     15 O          -1.1500   -0.9800   -1.2940 O.2     1  UNL1       -0.2816
     16 C          -2.6580    0.6190   -0.4210 C.ar    1  UNL1        0.0519
     17 C          -3.0560    1.8220    0.0960 C.ar    1  UNL1        0.0137
     18 N          -4.4110    1.8400    0.2090 N.ar    1  UNL1       -0.3599
     19 C          -4.9340    0.6700   -0.2250 C.ar    1  UNL1        0.0472
     20 C          -6.2330    0.1950   -0.3140 C.ar    1  UNL1       -0.0378
     21 C          -6.4180   -1.0710   -0.8110 C.ar    1  UNL1       -0.0598
     22 C          -5.3490   -1.8370   -1.2050 C.ar    1  UNL1       -0.0611
     23 C          -4.0650   -1.3670   -1.1160 C.ar    1  UNL1       -0.0519
     24 C          -3.8390   -0.1000   -0.6210 C.ar    1  UNL1        0.0106
     25 H           1.2133   -0.4613   -1.1722 H       1  UNL1        0.1731
     26 H           2.3289    2.0978   -0.5139 H       1  UNL1        0.1700
     27 H           2.8328    0.5065    2.0285 H       1  UNL1        0.0636
     28 H           4.7541   -0.6175    2.9558 H       1  UNL1        0.0620
     29 H           6.5373   -1.3195    1.4901 H       1  UNL1        0.0685
     30 H           4.4584    0.2279   -1.7784 H       1  UNL1        0.0704
     31 H          -2.4256    2.5955    0.3593 H       1  UNL1        0.0814
     32 H          -4.9365    2.5964    0.5569 H       1  UNL1        0.1654
     33 H          -7.0341    0.7736   -0.0166 H       1  UNL1        0.0638
     34 H          -7.3738   -1.4523   -0.8896 H       1  UNL1        0.0618
     35 H          -5.5158   -2.7856   -1.5756 H       1  UNL1        0.0618
     36 H          -3.2733   -1.9566   -1.4171 H       1  UNL1        0.0624
@<TRIPOS>UNITY_ATOM_ATTR
10 1
charge 1
12 1
charge -1
@<TRIPOS>BOND
     1     1     2    2
     2     2     3   am
     3     2    14    1
     4     3     4    1
     5     4     5    1
     6     5     6   ar
     7     5    13   ar
     8     6     7   ar
     9     7     8   ar
    10     8     9   ar
    11     9    10    1
    12     9    13   ar
    13    10    11    2
    14    10    12    1
    15    14    15    2
    16    14    16    1
    17    16    17   ar
    18    16    24   ar
    19    17    18   ar
    20    18    19   ar
    21    19    20   ar
    22    19    24   ar
    23    20    21   ar
    24    21    22   ar
    25    22    23   ar
    26    23    24   ar
    27     3    25    1
    28     4    26    1
    29     6    27    1
    30     7    28    1
    31     8    29    1
    32    13    30    1
    33    17    31    1
    34    18    32    1
    35    20    33    1
    36    21    34    1
    37    22    35    1
    38    23    36    1
@<TRIPOS>MOLECULE
../data/bude_mols_rdkit_confs2/molecule_68.pdb
 36 38 0 0 0
SMALL
GASTEIGER

@<TRIPOS>ATOM
      1 O           0.1740    1.1160   -1.0300 O.2     1  UNL1       -0.2651
      2 C          -0.0180    0.8560    0.1830 C.2     1  UNL1        0.3005
      3 N           1.0920    0.9260    1.0410 N.am    1  UNL1       -0.2298
      4 N           2.3910    1.2560    0.6900 N.pl3   1  UNL1       -0.2639
      5 C           3.4000    0.2870    0.4100 C.ar    1  UNL1        0.0508
      6 C           3.1220   -1.0630    0.4530 C.ar    1  UNL1       -0.0390
      7 C           4.0930   -2.0260    0.1900 C.ar    1  UNL1       -0.0536
      8 C           5.3680   -1.6250   -0.1240 C.ar    1  UNL1        0.0157
      9 C           5.6730   -0.2690   -0.1740 C.ar    1  UNL1        0.2750
     10 N           6.9840    0.1810   -0.4900 N.pl3   1  UNL1        0.0797
     11 O           7.9040   -0.6200   -0.7390 O.2     1  UNL1        0.0414
     12 O           7.2360    1.5200   -0.5200 O.co2   1  UNL1       -0.5760
     13 C           4.6920    0.6560    0.0910 C.ar    1  UNL1        0.0379
     14 C          -1.3580    0.4960    0.6600 C.2     1  UNL1        0.2507
     15 O          -1.4950    0.2540    1.8980 O.2     1  UNL1       -0.2816
     16 C          -2.5070    0.4110   -0.2230 C.ar    1  UNL1        0.0519
     17 C          -2.5710    0.5890   -1.5840 C.ar    1  UNL1        0.0137
     18 N          -3.8570    0.4050   -1.9880 N.ar    1  UNL1       -0.3599
     19 C          -4.6380    0.1120   -0.9370 C.ar    1  UNL1        0.0472
     20 C          -6.0080   -0.1570   -0.8390 C.ar    1  UNL1       -0.0378
     21 C          -6.5220   -0.4250    0.4090 C.ar    1  UNL1       -0.0598
     22 C          -5.6930   -0.4220    1.5050 C.ar    1  UNL1       -0.0611
     23 C          -4.3330   -0.1550    1.4040 C.ar    1  UNL1       -0.0519
     24 C          -3.8090    0.1120    0.1810 C.ar    1  UNL1        0.0106
     25 H           0.9302    0.7192    1.9898 H       1  UNL1        0.1731
     26 H           2.6303    2.2091    0.6307 H       1  UNL1        0.1700
     27 H           2.1647   -1.3692    0.6873 H       1  UNL1        0.0636
     28 H           3.8568   -3.0298    0.2307 H       1  UNL1        0.0620
     29 H           6.0976   -2.3274   -0.3223 H       1  UNL1        0.0685
     30 H           4.9286    1.6597    0.0503 H       1  UNL1        0.0704
     31 H          -1.7753    0.8234   -2.1980 H       1  UNL1        0.0814
     32 H          -4.1699    0.4766   -2.9187 H       1  UNL1        0.1654
     33 H          -6.6128   -0.1544   -1.6752 H       1  UNL1        0.0638
     34 H          -7.5276   -0.6278    0.5216 H       1  UNL1        0.0618
     35 H          -6.0938   -0.6248    2.4341 H       1  UNL1        0.0618
     36 H          -3.7327   -0.1597    2.2434 H       1  UNL1        0.0624
@<TRIPOS>UNITY_ATOM_ATTR
10 1
charge 1
12 1
charge -1
@<TRIPOS>BOND
     1     1     2    2
     2     2     3   am
     3     2    14    1
     4     3     4    1
     5     4     5    1
     6     5     6   ar
     7     5    13   ar
     8     6     7   ar
     9     7     8   ar
    10     8     9   ar
    11     9    10    1
    12     9    13   ar
    13    10    11    2
    14    10    12    1
    15    14    15    2
    16    14    16    1
    17    16    17   ar
    18    16    24   ar
    19    17    18   ar
    20    18    19   ar
    21    19    20   ar
    22    19    24   ar
    23    20    21   ar
    24    21    22   ar
    25    22    23   ar
    26    23    24   ar
    27     3    25    1
    28     4    26    1
    29     6    27    1
    30     7    28    1
    31     8    29    1
    32    13    30    1
    33    17    31    1
    34    18    32    1
    35    20    33    1
    36    21    34    1
    37    22    35    1
    38    23    36    1
@<TRIPOS>MOLECULE
../data/bude_mols_rdkit_confs2/molecule_68.pdb
 36 38 0 0 0
SMALL
GASTEIGER

@<TRIPOS>ATOM
      1 O          -0.2410    1.0760    1.2400 O.2     1  UNL1       -0.2651
      2 C          -0.1940    0.5060    0.1240 C.2     1  UNL1        0.3005
      3 N           1.0900    0.3470   -0.4650 N.am    1  UNL1       -0.2298
      4 N           2.2300    0.8260    0.2000 N.pl3   1  UNL1       -0.2639
      5 C           3.4930    0.1830    0.1640 C.ar    1  UNL1        0.0508
      6 C           3.7340   -0.9790   -0.5180 C.ar    1  UNL1       -0.0390
      7 C           4.9870   -1.5640   -0.5210 C.ar    1  UNL1       -0.0536
      8 C           6.0270   -0.9750    0.1750 C.ar    1  UNL1        0.0157
      9 C           5.8240    0.1950    0.8740 C.ar    1  UNL1        0.2750
     10 N           6.8730    0.8200    1.5960 N.pl3   1  UNL1        0.0797
     11 O           6.6470    1.8730    2.2040 O.2     1  UNL1        0.0414
     12 O           8.1250    0.2820    1.6290 O.co2   1  UNL1       -0.5760
     13 C           4.5610    0.7420    0.8490 C.ar    1  UNL1        0.0379
     14 C          -1.4320    0.0520   -0.4870 C.2     1  UNL1        0.2507
     15 O          -1.3060   -0.5220   -1.6160 O.2     1  UNL1       -0.2816
     16 C          -2.7320    0.2340    0.1310 C.ar    1  UNL1        0.0519
     17 C          -3.0460    0.7310    1.3660 C.ar    1  UNL1        0.0137
     18 N          -4.4000    0.7120    1.5200 N.ar    1  UNL1       -0.3599
     19 C          -4.9710    0.2150    0.4140 C.ar    1  UNL1        0.0472
     20 C          -6.3000   -0.0040    0.0750 C.ar    1  UNL1       -0.0378
     21 C          -6.6040   -0.5350   -1.1580 C.ar    1  UNL1       -0.0598
     22 C          -5.6160   -0.8500   -2.0580 C.ar    1  UNL1       -0.0611
     23 C          -4.2950   -0.6220   -1.6950 C.ar    1  UNL1       -0.0519
     24 C          -3.9410   -0.0910   -0.4690 C.ar    1  UNL1        0.0106
     25 H           1.1798   -0.0985   -1.3383 H       1  UNL1        0.1731
     26 H           2.1475    1.6568    0.7217 H       1  UNL1        0.1700
     27 H           2.9653   -1.4275   -1.0404 H       1  UNL1        0.0636
     28 H           5.1461   -2.4401   -1.0426 H       1  UNL1        0.0620
     29 H           6.9607   -1.4145    0.1708 H       1  UNL1        0.0685
     30 H           4.3999    1.6182    1.3699 H       1  UNL1        0.0704
     31 H          -2.3675    1.0661    2.0676 H       1  UNL1        0.0814
     32 H          -4.8845    1.0167    2.3210 H       1  UNL1        0.1654
     33 H          -7.0526    0.2293    0.7414 H       1  UNL1        0.0638
     34 H          -7.5911   -0.6991   -1.4103 H       1  UNL1        0.0618
     35 H          -5.8494   -1.2465   -2.9817 H       1  UNL1        0.0618
     36 H          -3.5484   -0.8583   -2.3671 H       1  UNL1        0.0624
@<TRIPOS>UNITY_ATOM_ATTR
10 1
charge 1
12 1
charge -1
@<TRIPOS>BOND
     1     1     2    2
     2     2     3   am
     3     2    14    1
     4     3     4    1
     5     4     5    1
     6     5     6   ar
     7     5    13   ar
     8     6     7   ar
     9     7     8   ar
    10     8     9   ar
    11     9    10    1
    12     9    13   ar
    13    10    11    2
    14    10    12    1
    15    14    15    2
    16    14    16    1
    17    16    17   ar
    18    16    24   ar
    19    17    18   ar
    20    18    19   ar
    21    19    20   ar
    22    19    24   ar
    23    20    21   ar
    24    21    22   ar
    25    22    23   ar
    26    23    24   ar
    27     3    25    1
    28     4    26    1
    29     6    27    1
    30     7    28    1
    31     8    29    1
    32    13    30    1
    33    17    31    1
    34    18    32    1
    35    20    33    1
    36    21    34    1
    37    22    35    1
    38    23    36    1
@<TRIPOS>MOLECULE
../data/bude_mols_rdkit_confs2/molecule_68.pdb
 36 38 0 0 0
SMALL
GASTEIGER

@<TRIPOS>ATOM
      1 O          -0.9140   -0.9030    0.7440 O.2     1  UNL1       -0.2651
      2 C          -0.4250   -0.6420   -0.4030 C.2     1  UNL1        0.3005
      3 N           1.0200   -0.6400   -0.4440 N.am    1  UNL1       -0.2298
      4 N           1.7460   -0.9190    0.6960 N.pl3   1  UNL1       -0.2639
      5 C           3.1120   -0.6150    0.8370 C.ar    1  UNL1        0.0508
      6 C           3.8130   -0.9880    2.0060 C.ar    1  UNL1       -0.0390
      7 C           5.1440   -0.6790    2.0680 C.ar    1  UNL1       -0.0536
      8 C           5.8010   -0.0250    1.0410 C.ar    1  UNL1        0.0157
      9 C           5.0990    0.3380   -0.1000 C.ar    1  UNL1        0.2750
     10 N           5.7430    1.0110   -1.1690 N.pl3   1  UNL1        0.0797
     11 O           5.0450    1.3440   -2.1670 O.2     1  UNL1        0.0414
     12 O           7.0810    1.2960   -1.0920 O.co2   1  UNL1       -0.5760
     13 C           3.7670    0.0350   -0.1770 C.ar    1  UNL1        0.0379
     14 C          -1.2360   -0.3720   -1.5760 C.2     1  UNL1        0.2507
     15 O          -0.6610   -0.2150   -2.6830 O.2     1  UNL1       -0.2816
     16 C          -2.6950   -0.3000   -1.4300 C.ar    1  UNL1        0.0519
     17 C          -3.6080   -0.9590   -2.2520 C.ar    1  UNL1        0.0137
     18 N          -4.8700   -0.7700   -1.7950 N.ar    1  UNL1       -0.3599
     19 C          -4.8090   -0.0020   -0.6930 C.ar    1  UNL1        0.0472
     20 C          -5.7790    0.4920    0.1350 C.ar    1  UNL1       -0.0378
     21 C          -5.4000    1.2950    1.2030 C.ar    1  UNL1       -0.0598
     22 C          -4.0790    1.6220    1.4700 C.ar    1  UNL1       -0.0611
     23 C          -3.1180    1.1060    0.6150 C.ar    1  UNL1       -0.0519
     24 C          -3.4640    0.2930   -0.4630 C.ar    1  UNL1        0.0106
     25 H           1.4872   -0.4392   -1.2870 H       1  UNL1        0.1731
     26 H           1.2840   -1.3531    1.4492 H       1  UNL1        0.1700
     27 H           3.3390   -1.4747    2.7828 H       1  UNL1        0.0636
     28 H           5.6773   -0.9432    2.9111 H       1  UNL1        0.0620
     29 H           6.8067    0.1916    1.1228 H       1  UNL1        0.0685
     30 H           3.2401    0.3035   -1.0228 H       1  UNL1        0.0704
     31 H          -3.3590   -1.5110   -3.0877 H       1  UNL1        0.0814
     32 H          -5.6905   -1.1328   -2.2004 H       1  UNL1        0.1654
     33 H          -6.7736    0.2723   -0.0306 H       1  UNL1        0.0638
     34 H          -6.1347    1.6651    1.8261 H       1  UNL1        0.0618
     35 H          -3.8231    2.2225    2.2693 H       1  UNL1        0.0618
     36 H          -2.1240    1.3287    0.7802 H       1  UNL1        0.0624
@<TRIPOS>UNITY_ATOM_ATTR
10 1
charge 1
12 1
charge -1
@<TRIPOS>BOND
     1     1     2    2
     2     2     3   am
     3     2    14    1
     4     3     4    1
     5     4     5    1
     6     5     6   ar
     7     5    13   ar
     8     6     7   ar
     9     7     8   ar
    10     8     9   ar
    11     9    10    1
    12     9    13   ar
    13    10    11    2
    14    10    12    1
    15    14    15    2
    16    14    16    1
    17    16    17   ar
    18    16    24   ar
    19    17    18   ar
    20    18    19   ar
    21    19    20   ar
    22    19    24   ar
    23    20    21   ar
    24    21    22   ar
    25    22    23   ar
    26    23    24   ar
    27     3    25    1
    28     4    26    1
    29     6    27    1
    30     7    28    1
    31     8    29    1
    32    13    30    1
    33    17    31    1
    34    18    32    1
    35    20    33    1
    36    21    34    1
    37    22    35    1
    38    23    36    1
@<TRIPOS>MOLECULE
../data/bude_mols_rdkit_confs2/molecule_68.pdb
 36 38 0 0 0
SMALL
GASTEIGER

@<TRIPOS>ATOM
      1 O          -0.7080    0.2550   -1.1440 O.2     1  UNL1       -0.2651
      2 C          -0.4080   -0.8090   -0.5130 C.2     1  UNL1        0.3005
      3 N           1.0060   -0.9920   -0.2500 N.am    1  UNL1       -0.2298
      4 N           1.9020   -0.0330   -0.6890 N.pl3   1  UNL1       -0.2639
      5 C           3.1530    0.1290   -0.0520 C.ar    1  UNL1        0.0508
      6 C           3.5410   -0.6380    1.0280 C.ar    1  UNL1       -0.0390
      7 C           4.7680   -0.4550    1.6250 C.ar    1  UNL1       -0.0536
      8 C           5.6060    0.5210    1.1140 C.ar    1  UNL1        0.0157
      9 C           5.2640    1.3040    0.0470 C.ar    1  UNL1        0.2750
     10 N           6.1290    2.3020   -0.4700 N.pl3   1  UNL1        0.0797
     11 O           5.8300    3.0230   -1.4400 O.2     1  UNL1        0.0414
     12 O           7.3490    2.4860    0.1210 O.co2   1  UNL1       -0.5760
     13 C           4.0360    1.1060   -0.5350 C.ar    1  UNL1        0.0379
     14 C          -1.3780   -1.7820   -0.0770 C.2     1  UNL1        0.2507
     15 O          -0.9290   -2.8530    0.4560 O.2     1  UNL1       -0.2816
     16 C          -2.7980   -1.5530   -0.2460 C.ar    1  UNL1        0.0519
     17 C          -3.6610   -2.5430   -0.7620 C.ar    1  UNL1        0.0137
     18 N          -4.8560   -1.9630   -0.8490 N.ar    1  UNL1       -0.3599
     19 C          -4.8050   -0.6880   -0.4250 C.ar    1  UNL1        0.0472
     20 C          -5.7530    0.3190   -0.3020 C.ar    1  UNL1       -0.0378
     21 C          -5.4500    1.5730    0.1900 C.ar    1  UNL1       -0.0598
     22 C          -4.1560    1.8410    0.5760 C.ar    1  UNL1       -0.0611
     23 C          -3.1800    0.8640    0.4690 C.ar    1  UNL1       -0.0519
     24 C          -3.5050   -0.3900   -0.0310 C.ar    1  UNL1        0.0106
     25 H           1.3245   -1.7878    0.2344 H       1  UNL1        0.1731
     26 H           1.6656    0.5419   -1.4524 H       1  UNL1        0.1700
     27 H           2.9011   -1.3602    1.3939 H       1  UNL1        0.0636
     28 H           5.0554   -1.0303    2.4321 H       1  UNL1        0.0620
     29 H           6.5272    0.6634    1.5569 H       1  UNL1        0.0685
     30 H           3.7580    1.6862   -1.3419 H       1  UNL1        0.0704
     31 H          -3.4171   -3.5125   -1.0180 H       1  UNL1        0.0814
     32 H          -5.6692   -2.4085   -1.1799 H       1  UNL1        0.1654
     33 H          -6.7242    0.1220   -0.5902 H       1  UNL1        0.0638
     34 H          -6.1812    2.2972    0.2671 H       1  UNL1        0.0618
     35 H          -3.9123    2.7729    0.9463 H       1  UNL1        0.0618
     36 H          -2.2114    1.0680    0.7608 H       1  UNL1        0.0624
@<TRIPOS>UNITY_ATOM_ATTR
10 1
charge 1
12 1
charge -1
@<TRIPOS>BOND
     1     1     2    2
     2     2     3   am
     3     2    14    1
     4     3     4    1
     5     4     5    1
     6     5     6   ar
     7     5    13   ar
     8     6     7   ar
     9     7     8   ar
    10     8     9   ar
    11     9    10    1
    12     9    13   ar
    13    10    11    2
    14    10    12    1
    15    14    15    2
    16    14    16    1
    17    16    17   ar
    18    16    24   ar
    19    17    18   ar
    20    18    19   ar
    21    19    20   ar
    22    19    24   ar
    23    20    21   ar
    24    21    22   ar
    25    22    23   ar
    26    23    24   ar
    27     3    25    1
    28     4    26    1
    29     6    27    1
    30     7    28    1
    31     8    29    1
    32    13    30    1
    33    17    31    1
    34    18    32    1
    35    20    33    1
    36    21    34    1
    37    22    35    1
    38    23    36    1
@<TRIPOS>MOLECULE
../data/bude_mols_rdkit_confs2/molecule_68.pdb
 36 38 0 0 0
SMALL
GASTEIGER

@<TRIPOS>ATOM
      1 O          -0.0460    1.7510    0.4190 O.2     1  UNL1       -0.2651
      2 C          -0.1410    0.7230   -0.2850 C.2     1  UNL1        0.3005
      3 N           1.0510    0.2830   -0.9560 N.am    1  UNL1       -0.2298
      4 N           2.2660    0.9340   -0.8560 N.pl3   1  UNL1       -0.2639
      5 C           3.4110    0.2270   -0.4040 C.ar    1  UNL1        0.0508
      6 C           3.3170   -1.1110   -0.0570 C.ar    1  UNL1       -0.0390
      7 C           4.3900   -1.8510    0.3870 C.ar    1  UNL1       -0.0536
      8 C           5.6110   -1.2260    0.4890 C.ar    1  UNL1        0.0157
      9 C           5.7310    0.1270    0.1440 C.ar    1  UNL1        0.2750
     10 N           6.9790    0.7770    0.2460 N.pl3   1  UNL1        0.0797
     11 O           7.9730    0.1570    0.6380 O.2     1  UNL1        0.0414
     12 O           7.0980    2.0900   -0.0880 O.co2   1  UNL1       -0.5760
     13 C           4.6370    0.8420   -0.2970 C.ar    1  UNL1        0.0379
     14 C          -1.3990    0.0310   -0.4020 C.2     1  UNL1        0.2507
     15 O          -1.4510   -0.9940   -1.1160 O.2     1  UNL1       -0.2816
     16 C          -2.5730    0.5070    0.2870 C.ar    1  UNL1        0.0519
     17 C          -2.7710    1.5890    1.1180 C.ar    1  UNL1        0.0137
     18 N          -4.0530    1.6140    1.5160 N.ar    1  UNL1       -0.3599
     19 C          -4.7100    0.5680    0.9640 C.ar    1  UNL1        0.0472
     20 C          -6.0360    0.1870    1.0850 C.ar    1  UNL1       -0.0378
     21 C          -6.4750   -0.9390    0.4120 C.ar    1  UNL1       -0.0598
     22 C          -5.6030   -1.6690   -0.3680 C.ar    1  UNL1       -0.0611
     23 C          -4.2890   -1.2460   -0.4550 C.ar    1  UNL1       -0.0519
     24 C          -3.8160   -0.1420    0.1920 C.ar    1  UNL1        0.0106
     25 H           0.9995   -0.5247   -1.5165 H       1  UNL1        0.1731
     26 H           2.3373    1.8857   -1.0976 H       1  UNL1        0.1700
     27 H           2.3987   -1.5754   -0.1350 H       1  UNL1        0.0636
     28 H           4.2811   -2.8465    0.6362 H       1  UNL1        0.0620
     29 H           6.4358   -1.7515    0.8184 H       1  UNL1        0.0685
     30 H           4.7381    1.8382   -0.5467 H       1  UNL1        0.0704
     31 H          -2.0475    2.2723    1.3912 H       1  UNL1        0.0814
     32 H          -4.4516    2.2865    2.1144 H       1  UNL1        0.1654
     33 H          -6.6870    0.7351    1.6687 H       1  UNL1        0.0638
     34 H          -7.4604   -1.2343    0.4941 H       1  UNL1        0.0618
     35 H          -5.9228   -2.5097   -0.8740 H       1  UNL1        0.0618
     36 H          -3.6349   -1.7918   -1.0374 H       1  UNL1        0.0624
@<TRIPOS>UNITY_ATOM_ATTR
10 1
charge 1
12 1
charge -1
@<TRIPOS>BOND
     1     1     2    2
     2     2     3   am
     3     2    14    1
     4     3     4    1
     5     4     5    1
     6     5     6   ar
     7     5    13   ar
     8     6     7   ar
     9     7     8   ar
    10     8     9   ar
    11     9    10    1
    12     9    13   ar
    13    10    11    2
    14    10    12    1
    15    14    15    2
    16    14    16    1
    17    16    17   ar
    18    16    24   ar
    19    17    18   ar
    20    18    19   ar
    21    19    20   ar
    22    19    24   ar
    23    20    21   ar
    24    21    22   ar
    25    22    23   ar
    26    23    24   ar
    27     3    25    1
    28     4    26    1
    29     6    27    1
    30     7    28    1
    31     8    29    1
    32    13    30    1
    33    17    31    1
    34    18    32    1
    35    20    33    1
    36    21    34    1
    37    22    35    1
    38    23    36    1
@<TRIPOS>MOLECULE
../data/bude_mols_rdkit_confs2/molecule_68.pdb
 36 38 0 0 0
SMALL
GASTEIGER

@<TRIPOS>ATOM
      1 O          -0.7890    0.9980   -0.0870 O.2     1  UNL1       -0.2651
      2 C          -0.3230   -0.0920   -0.4990 C.2     1  UNL1        0.3005
      3 N           1.0610   -0.0890   -0.8840 N.am    1  UNL1       -0.2298
      4 N           1.8670    1.0390   -0.8200 N.pl3   1  UNL1       -0.2639
      5 C           3.2210    1.0170   -0.4160 C.ar    1  UNL1        0.0508
      6 C           3.9930    2.1550   -0.4100 C.ar    1  UNL1       -0.0390
      7 C           5.3240    2.1510   -0.0160 C.ar    1  UNL1       -0.0536
      8 C           5.9220    0.9910    0.3850 C.ar    1  UNL1        0.0157
      9 C           5.1660   -0.1770    0.3890 C.ar    1  UNL1        0.2750
     10 N           5.7770   -1.3810    0.8060 N.pl3   1  UNL1        0.0797
     11 O           5.0990   -2.4190    0.8260 O.2     1  UNL1        0.0414
     12 O           7.0930   -1.4610    1.1990 O.co2   1  UNL1       -0.5760
     13 C           3.8500   -0.1510   -0.0040 C.ar    1  UNL1        0.0379
     14 C          -1.1490   -1.2650   -0.5730 C.2     1  UNL1        0.2507
     15 O          -0.5060   -2.3510   -0.8910 O.2     1  UNL1       -0.2816
     16 C          -2.5680   -1.3510   -0.3330 C.ar    1  UNL1        0.0519
     17 C          -3.2260   -2.3890    0.3570 C.ar    1  UNL1        0.0137
     18 N          -4.5240   -2.1100    0.4510 N.ar    1  UNL1       -0.3599
     19 C          -4.7750   -0.9210   -0.1510 C.ar    1  UNL1        0.0472
     20 C          -5.9640   -0.2530   -0.3080 C.ar    1  UNL1       -0.0378
     21 C          -5.9600    0.9420   -0.9840 C.ar    1  UNL1       -0.0598
     22 C          -4.7870    1.4410   -1.4830 C.ar    1  UNL1       -0.0611
     23 C          -3.5850    0.7480   -1.3130 C.ar    1  UNL1       -0.0519
     24 C          -3.5490   -0.4530   -0.6390 C.ar    1  UNL1        0.0106
     25 H           1.4576   -0.9292   -1.2096 H       1  UNL1        0.1731
     26 H           1.4723    1.9054   -1.0708 H       1  UNL1        0.1700
     27 H           3.5667    3.0457   -0.7098 H       1  UNL1        0.0636
     28 H           5.8647    3.0300   -0.0262 H       1  UNL1        0.0620
     29 H           6.9114    0.9808    0.6782 H       1  UNL1        0.0685
     30 H           3.3096   -1.0301    0.0072 H       1  UNL1        0.0704
     31 H          -2.7709   -3.2359    0.7320 H       1  UNL1        0.0814
     32 H          -5.1975   -2.6786    0.8896 H       1  UNL1        0.1654
     33 H          -6.8412   -0.6404    0.0735 H       1  UNL1        0.0638
     34 H          -6.8406    1.4637   -1.1158 H       1  UNL1        0.0618
     35 H          -4.7902    2.3395   -1.9907 H       1  UNL1        0.0618
     36 H          -2.7121    1.1416   -1.6979 H       1  UNL1        0.0624
@<TRIPOS>UNITY_ATOM_ATTR
10 1
charge 1
12 1
charge -1
@<TRIPOS>BOND
     1     1     2    2
     2     2     3   am
     3     2    14    1
     4     3     4    1
     5     4     5    1
     6     5     6   ar
     7     5    13   ar
     8     6     7   ar
     9     7     8   ar
    10     8     9   ar
    11     9    10    1
    12     9    13   ar
    13    10    11    2
    14    10    12    1
    15    14    15    2
    16    14    16    1
    17    16    17   ar
    18    16    24   ar
    19    17    18   ar
    20    18    19   ar
    21    19    20   ar
    22    19    24   ar
    23    20    21   ar
    24    21    22   ar
    25    22    23   ar
    26    23    24   ar
    27     3    25    1
    28     4    26    1
    29     6    27    1
    30     7    28    1
    31     8    29    1
    32    13    30    1
    33    17    31    1
    34    18    32    1
    35    20    33    1
    36    21    34    1
    37    22    35    1
    38    23    36    1
@<TRIPOS>MOLECULE
../data/bude_mols_rdkit_confs2/molecule_68.pdb
 36 38 0 0 0
SMALL
GASTEIGER

@<TRIPOS>ATOM
      1 O           0.5400   -0.9800   -1.2870 O.2     1  UNL1       -0.2651
      2 C           0.3390   -1.1550   -0.0510 C.2     1  UNL1        0.3005
      3 N          -1.0460   -1.1940    0.3430 N.am    1  UNL1       -0.2298
      4 N          -2.0460   -1.0410   -0.6050 N.pl3   1  UNL1       -0.2639
      5 C          -3.3330   -0.5540   -0.3130 C.ar    1  UNL1        0.0508
      6 C          -4.4010   -1.4210   -0.3160 C.ar    1  UNL1       -0.0390
      7 C          -5.6560   -0.9220   -0.0340 C.ar    1  UNL1       -0.0536
      8 C          -5.8520    0.3950    0.2450 C.ar    1  UNL1        0.0157
      9 C          -4.7680    1.2830    0.2500 C.ar    1  UNL1        0.2750
     10 N          -4.9470    2.6560    0.5420 N.pl3   1  UNL1        0.0797
     11 O          -3.9600    3.4110    0.5480 O.2     1  UNL1        0.0414
     12 O          -6.2200    3.0980    0.8060 O.co2   1  UNL1       -0.5760
     13 C          -3.5210    0.7870   -0.0310 C.ar    1  UNL1        0.0379
     14 C           1.4320   -1.3050    0.8880 C.2     1  UNL1        0.2507
     15 O           1.3120   -1.4940    2.1170 O.2     1  UNL1       -0.2816
     16 C           2.7830   -1.2260    0.3570 C.ar    1  UNL1        0.0519
     17 C           3.5550   -2.2560   -0.1040 C.ar    1  UNL1        0.0137
     18 N           4.7360   -1.7200   -0.5010 N.ar    1  UNL1       -0.3599
     19 C           4.7340   -0.3940   -0.3060 C.ar    1  UNL1        0.0472
     20 C           5.6460    0.6230   -0.5260 C.ar    1  UNL1       -0.0378
     21 C           5.3520    1.9450   -0.2140 C.ar    1  UNL1       -0.0598
     22 C           4.1320    2.2870    0.3270 C.ar    1  UNL1       -0.0611
     23 C           3.2280    1.2740    0.5440 C.ar    1  UNL1       -0.0519
     24 C           3.4990   -0.0510    0.2410 C.ar    1  UNL1        0.0106
     25 H          -1.2833   -1.3298    1.2888 H       1  UNL1        0.1731
     26 H          -1.8437   -1.2874   -1.5364 H       1  UNL1        0.1700
     27 H          -4.2664   -2.4227   -0.5246 H       1  UNL1        0.0636
     28 H          -6.4650   -1.5628   -0.0347 H       1  UNL1        0.0620
     29 H          -6.8016    0.7410    0.4535 H       1  UNL1        0.0685
     30 H          -2.7095    1.4246   -0.0321 H       1  UNL1        0.0704
     31 H           3.2894   -3.2525   -0.1426 H       1  UNL1        0.0814
     32 H           5.4874   -2.2319   -0.8785 H       1  UNL1        0.1654
     33 H           6.5670    0.3943   -0.9316 H       1  UNL1        0.0638
     34 H           6.0558    2.6791   -0.3896 H       1  UNL1        0.0618
     35 H           3.9053    3.2663    0.5605 H       1  UNL1        0.0618
     36 H           2.3089    1.5102    0.9496 H       1  UNL1        0.0624
@<TRIPOS>UNITY_ATOM_ATTR
10 1
charge 1
12 1
charge -1
@<TRIPOS>BOND
     1     1     2    2
     2     2     3   am
     3     2    14    1
     4     3     4    1
     5     4     5    1
     6     5     6   ar
     7     5    13   ar
     8     6     7   ar
     9     7     8   ar
    10     8     9   ar
    11     9    10    1
    12     9    13   ar
    13    10    11    2
    14    10    12    1
    15    14    15    2
    16    14    16    1
    17    16    17   ar
    18    16    24   ar
    19    17    18   ar
    20    18    19   ar
    21    19    20   ar
    22    19    24   ar
    23    20    21   ar
    24    21    22   ar
    25    22    23   ar
    26    23    24   ar
    27     3    25    1
    28     4    26    1
    29     6    27    1
    30     7    28    1
    31     8    29    1
    32    13    30    1
    33    17    31    1
    34    18    32    1
    35    20    33    1
    36    21    34    1
    37    22    35    1
    38    23    36    1
@<TRIPOS>MOLECULE
../data/bude_mols_rdkit_confs2/molecule_68.pdb
 36 38 0 0 0
SMALL
GASTEIGER

@<TRIPOS>ATOM
      1 O           0.4420   -0.8930   -0.4040 O.2     1  UNL1       -0.2651
      2 C           0.2450   -0.1990    0.6230 C.2     1  UNL1        0.3005
      3 N          -1.0430   -0.4020    1.2330 N.am    1  UNL1       -0.2298
      4 N          -1.9720   -1.3020    0.7020 N.pl3   1  UNL1       -0.2639
      5 C          -3.2490   -0.9690    0.2640 C.ar    1  UNL1        0.0508
      6 C          -4.0850   -1.9300   -0.2430 C.ar    1  UNL1       -0.0390
      7 C          -5.3630   -1.6360   -0.6890 C.ar    1  UNL1       -0.0536
      8 C          -5.7630   -0.3180   -0.5990 C.ar    1  UNL1        0.0157
      9 C          -4.9580    0.6800   -0.0980 C.ar    1  UNL1        0.2750
     10 N          -5.4230    2.0120   -0.0310 N.pl3   1  UNL1        0.0797
     11 O          -6.5680    2.2890   -0.4280 O.2     1  UNL1        0.0414
     12 O          -4.6470    3.0250    0.4620 O.co2   1  UNL1       -0.5760
     13 C          -3.6870    0.3270    0.3340 C.ar    1  UNL1        0.0379
     14 C           1.2290    0.7180    1.1390 C.2     1  UNL1        0.2507
     15 O           0.7850    1.4180    2.1490 O.2     1  UNL1       -0.2816
     16 C           2.5760    0.9440    0.6850 C.ar    1  UNL1        0.0519
     17 C           3.1510    2.2300    0.6930 C.ar    1  UNL1        0.0137
     18 N           4.3800    2.1710    0.1570 N.ar    1  UNL1       -0.3599
     19 C           4.6460    0.9030   -0.2020 C.ar    1  UNL1        0.0472
     20 C           5.7730    0.3620   -0.7720 C.ar    1  UNL1       -0.0378
     21 C           5.7840   -0.9920   -1.0210 C.ar    1  UNL1       -0.0598
     22 C           4.6870   -1.7630   -0.7000 C.ar    1  UNL1       -0.0611
     23 C           3.5480   -1.2260   -0.1270 C.ar    1  UNL1       -0.0519
     24 C           3.5250    0.1300    0.1240 C.ar    1  UNL1        0.0106
     25 H          -1.2755    0.1054    2.0440 H       1  UNL1        0.1731
     26 H          -1.7006   -2.2458    0.6328 H       1  UNL1        0.1700
     27 H          -3.7510   -2.9051   -0.2941 H       1  UNL1        0.0636
     28 H          -5.9852   -2.3661   -1.0697 H       1  UNL1        0.0620
     29 H          -6.7107   -0.0689   -0.9227 H       1  UNL1        0.0685
     30 H          -3.0610    1.0538    0.7146 H       1  UNL1        0.0704
     31 H           2.6980    3.0839    1.0545 H       1  UNL1        0.0814
     32 H           4.9902    2.9353    0.0445 H       1  UNL1        0.1654
     33 H           6.5863    0.9525   -1.0063 H       1  UNL1        0.0638
     34 H           6.6146   -1.4305   -1.4486 H       1  UNL1        0.0618
     35 H           4.7165   -2.7762   -0.8939 H       1  UNL1        0.0618
     36 H           2.7389   -1.8228    0.1059 H       1  UNL1        0.0624
@<TRIPOS>UNITY_ATOM_ATTR
10 1
charge 1
12 1
charge -1
@<TRIPOS>BOND
     1     1     2    2
     2     2     3   am
     3     2    14    1
     4     3     4    1
     5     4     5    1
     6     5     6   ar
     7     5    13   ar
     8     6     7   ar
     9     7     8   ar
    10     8     9   ar
    11     9    10    1
    12     9    13   ar
    13    10    11    2
    14    10    12    1
    15    14    15    2
    16    14    16    1
    17    16    17   ar
    18    16    24   ar
    19    17    18   ar
    20    18    19   ar
    21    19    20   ar
    22    19    24   ar
    23    20    21   ar
    24    21    22   ar
    25    22    23   ar
    26    23    24   ar
    27     3    25    1
    28     4    26    1
    29     6    27    1
    30     7    28    1
    31     8    29    1
    32    13    30    1
    33    17    31    1
    34    18    32    1
    35    20    33    1
    36    21    34    1
    37    22    35    1
    38    23    36    1
@<TRIPOS>MOLECULE
../data/bude_mols_rdkit_confs2/molecule_68.pdb
 36 38 0 0 0
SMALL
GASTEIGER

@<TRIPOS>ATOM
      1 O           0.1370    1.6300   -0.4810 O.2     1  UNL1       -0.2651
      2 C           0.1880    0.3830   -0.4300 C.2     1  UNL1        0.3005
      3 N          -1.0490   -0.3150   -0.3940 N.am    1  UNL1       -0.2298
      4 N          -2.2280    0.3960   -0.4140 N.pl3   1  UNL1       -0.2639
      5 C          -3.5070   -0.1170   -0.0710 C.ar    1  UNL1        0.0508
      6 C          -3.7180   -1.4290    0.2810 C.ar    1  UNL1       -0.0390
      7 C          -4.9860   -1.8910    0.6170 C.ar    1  UNL1       -0.0536
      8 C          -6.0600   -1.0130    0.5970 C.ar    1  UNL1        0.0157
      9 C          -5.8740    0.3020    0.2490 C.ar    1  UNL1        0.2750
     10 N          -6.9810    1.1810    0.2380 N.pl3   1  UNL1        0.0797
     11 O          -8.1160    0.7810    0.5320 O.2     1  UNL1        0.0414
     12 O          -6.8210    2.4990   -0.0980 O.co2   1  UNL1       -0.5760
     13 C          -4.6090    0.7120   -0.0740 C.ar    1  UNL1        0.0379
     14 C           1.4550   -0.2890   -0.4080 C.2     1  UNL1        0.2507
     15 O           1.4540   -1.5510   -0.3690 O.2     1  UNL1       -0.2816
     16 C           2.7090    0.4690   -0.4310 C.ar    1  UNL1        0.0519
     17 C           2.9250    1.8250   -0.5030 C.ar    1  UNL1        0.0137
     18 N           4.2640    2.0730   -0.4890 N.ar    1  UNL1       -0.3599
     19 C           4.9440    0.9060   -0.4090 C.ar    1  UNL1        0.0472
     20 C           6.3030    0.6290   -0.3640 C.ar    1  UNL1       -0.0378
     21 C           6.7360   -0.6670   -0.2820 C.ar    1  UNL1       -0.0598
     22 C           5.7810   -1.6620   -0.2470 C.ar    1  UNL1       -0.0611
     23 C           4.4280   -1.3880   -0.2910 C.ar    1  UNL1       -0.0519
     24 C           3.9920   -0.0880   -0.3730 C.ar    1  UNL1        0.0106
     25 H          -1.0630   -1.2986   -0.3551 H       1  UNL1        0.1731
     26 H          -2.1802    1.3400   -0.6894 H       1  UNL1        0.1700
     27 H          -2.9203   -2.0836    0.2962 H       1  UNL1        0.0636
     28 H          -5.1269   -2.8792    0.8791 H       1  UNL1        0.0620
     29 H          -7.0034   -1.3500    0.8449 H       1  UNL1        0.0685
     30 H          -4.4715    1.7008   -0.3355 H       1  UNL1        0.0704
     31 H           2.1866    2.5437   -0.5590 H       1  UNL1        0.0814
     32 H           4.6751    2.9666   -0.5308 H       1  UNL1        0.1654
     33 H           6.9877    1.4006   -0.3924 H       1  UNL1        0.0638
     34 H           7.7426   -0.8921   -0.2475 H       1  UNL1        0.0618
     35 H           6.0883   -2.6453   -0.1858 H       1  UNL1        0.0618
     36 H           3.7442   -2.1604   -0.2623 H       1  UNL1        0.0624
@<TRIPOS>UNITY_ATOM_ATTR
10 1
charge 1
12 1
charge -1
@<TRIPOS>BOND
     1     1     2    2
     2     2     3   am
     3     2    14    1
     4     3     4    1
     5     4     5    1
     6     5     6   ar
     7     5    13   ar
     8     6     7   ar
     9     7     8   ar
    10     8     9   ar
    11     9    10    1
    12     9    13   ar
    13    10    11    2
    14    10    12    1
    15    14    15    2
    16    14    16    1
    17    16    17   ar
    18    16    24   ar
    19    17    18   ar
    20    18    19   ar
    21    19    20   ar
    22    19    24   ar
    23    20    21   ar
    24    21    22   ar
    25    22    23   ar
    26    23    24   ar
    27     3    25    1
    28     4    26    1
    29     6    27    1
    30     7    28    1
    31     8    29    1
    32    13    30    1
    33    17    31    1
    34    18    32    1
    35    20    33    1
    36    21    34    1
    37    22    35    1
    38    23    36    1
@<TRIPOS>MOLECULE
../data/bude_mols_rdkit_confs2/molecule_68.pdb
 36 38 0 0 0
SMALL
GASTEIGER

@<TRIPOS>ATOM
      1 O          -0.4310   -0.0230    2.2170 O.2     1  UNL1       -0.2651
      2 C          -0.2100    0.1760    0.9770 C.2     1  UNL1        0.3005
      3 N           1.1410    0.3090    0.5030 N.am    1  UNL1       -0.2298
      4 N           2.1850    0.2150    1.4010 N.pl3   1  UNL1       -0.2639
      5 C           3.5140    0.0090    0.9430 C.ar    1  UNL1        0.0508
      6 C           4.5000   -0.0750    1.9330 C.ar    1  UNL1       -0.0390
      7 C           5.8090   -0.2700    1.5800 C.ar    1  UNL1       -0.0536
      8 C           6.1300   -0.3800    0.2550 C.ar    1  UNL1        0.0157
      9 C           5.1800   -0.3020   -0.7490 C.ar    1  UNL1        0.2750
     10 N           5.5640   -0.4210   -2.1190 N.pl3   1  UNL1        0.0797
     11 O           4.6520   -0.3330   -2.9700 O.2     1  UNL1        0.0414
     12 O           6.8730   -0.6190   -2.4600 O.co2   1  UNL1       -0.5760
     13 C           3.8700   -0.1060   -0.3750 C.ar    1  UNL1        0.0379
     14 C          -1.2770    0.2760    0.0150 C.2     1  UNL1        0.2507
     15 O          -1.0170    0.4670   -1.1930 O.2     1  UNL1       -0.2816
     16 C          -2.6730    0.1600    0.4010 C.ar    1  UNL1        0.0519
     17 C          -3.2270   -0.0320    1.6640 C.ar    1  UNL1        0.0137
     18 N          -4.5690   -0.0740    1.5350 N.ar    1  UNL1       -0.3599
     19 C          -4.9290    0.0790    0.2630 C.ar    1  UNL1        0.0472
     20 C          -6.1850    0.1050   -0.3430 C.ar    1  UNL1       -0.0378
     21 C          -6.2680    0.2830   -1.7090 C.ar    1  UNL1       -0.0598
     22 C          -5.1140    0.4330   -2.4490 C.ar    1  UNL1       -0.0611
     23 C          -3.8670    0.4040   -1.8270 C.ar    1  UNL1       -0.0519
     24 C          -3.7740    0.2270   -0.4640 C.ar    1  UNL1        0.0106
     25 H           1.3196    0.4655   -0.4524 H       1  UNL1        0.1731
     26 H           2.0073    0.2913    2.3663 H       1  UNL1        0.1700
     27 H           4.2408    0.0099    2.9283 H       1  UNL1        0.0636
     28 H           6.5424   -0.3330    2.3033 H       1  UNL1        0.0620
     29 H           7.1176   -0.5267   -0.0062 H       1  UNL1        0.0685
     30 H           3.1407   -0.0444   -1.1026 H       1  UNL1        0.0704
     31 H          -2.7012   -0.1260    2.5470 H       1  UNL1        0.0814
     32 H          -5.1979   -0.2008    2.2818 H       1  UNL1        0.1654
     33 H          -7.0409   -0.0074    0.2226 H       1  UNL1        0.0638
     34 H          -7.1889    0.3038   -2.1743 H       1  UNL1        0.0618
     35 H          -5.1741    0.5677   -3.4704 H       1  UNL1        0.0618
     36 H          -3.0094    0.5156   -2.3901 H       1  UNL1        0.0624
@<TRIPOS>UNITY_ATOM_ATTR
10 1
charge 1
12 1
charge -1
@<TRIPOS>BOND
     1     1     2    2
     2     2     3   am
     3     2    14    1
     4     3     4    1
     5     4     5    1
     6     5     6   ar
     7     5    13   ar
     8     6     7   ar
     9     7     8   ar
    10     8     9   ar
    11     9    10    1
    12     9    13   ar
    13    10    11    2
    14    10    12    1
    15    14    15    2
    16    14    16    1
    17    16    17   ar
    18    16    24   ar
    19    17    18   ar
    20    18    19   ar
    21    19    20   ar
    22    19    24   ar
    23    20    21   ar
    24    21    22   ar
    25    22    23   ar
    26    23    24   ar
    27     3    25    1
    28     4    26    1
    29     6    27    1
    30     7    28    1
    31     8    29    1
    32    13    30    1
    33    17    31    1
    34    18    32    1
    35    20    33    1
    36    21    34    1
    37    22    35    1
    38    23    36    1
@<TRIPOS>MOLECULE
../data/bude_mols_rdkit_confs2/molecule_68.pdb
 36 38 0 0 0
SMALL
GASTEIGER

@<TRIPOS>ATOM
      1 O          -0.3010   -1.5030   -1.0160 O.2     1  UNL1       -0.2651
      2 C          -0.2060   -0.4620   -0.3430 C.2     1  UNL1        0.3005
      3 N           1.0700    0.1130   -0.1490 N.am    1  UNL1       -0.2298
      4 N           2.1940   -0.5010   -0.7090 N.pl3   1  UNL1       -0.2639
      5 C           3.4630   -0.2600   -0.1170 C.ar    1  UNL1        0.0508
      6 C           3.6780   -0.7970    1.1540 C.ar    1  UNL1       -0.0390
      7 C           4.9180   -0.5710    1.7080 C.ar    1  UNL1       -0.0536
      8 C           5.9090    0.1390    1.0690 C.ar    1  UNL1        0.0157
      9 C           5.7040    0.6720   -0.1870 C.ar    1  UNL1        0.2750
     10 N           6.7120    1.4000   -0.8720 N.pl3   1  UNL1        0.0797
     11 O           7.8030    1.5670   -0.3050 O.2     1  UNL1        0.0414
     12 O           6.5410    1.9230   -2.1250 O.co2   1  UNL1       -0.5760
     13 C           4.4490    0.4520   -0.7620 C.ar    1  UNL1        0.0379
     14 C          -1.3740    0.1430    0.2260 C.2     1  UNL1        0.2507
     15 O          -1.2470    1.2220    0.8830 O.2     1  UNL1       -0.2816
     16 C          -2.6870   -0.4630    0.0640 C.ar    1  UNL1        0.0519
     17 C          -3.0230   -1.6770   -0.4770 C.ar    1  UNL1        0.0137
     18 N          -4.3490   -1.8590   -0.4190 N.ar    1  UNL1       -0.3599
     19 C          -4.8740   -0.7660    0.1580 C.ar    1  UNL1        0.0472
     20 C          -6.1860   -0.4580    0.4450 C.ar    1  UNL1       -0.0378
     21 C          -6.4670    0.7350    1.0400 C.ar    1  UNL1       -0.0598
     22 C          -5.4740    1.6260    1.3570 C.ar    1  UNL1       -0.0611
     23 C          -4.1510    1.3040    1.0630 C.ar    1  UNL1       -0.0519
     24 C          -3.8720    0.1220    0.4720 C.ar    1  UNL1        0.0106
     25 H           1.1667    0.9398    0.3766 H       1  UNL1        0.1731
     26 H           2.1083   -1.0869   -1.4955 H       1  UNL1        0.1700
     27 H           2.9487   -1.3329    1.6500 H       1  UNL1        0.0636
     28 H           5.1137   -0.9520    2.6469 H       1  UNL1        0.0620
     29 H           6.8190    0.2747    1.5364 H       1  UNL1        0.0685
     30 H           4.2554    0.8357   -1.7003 H       1  UNL1        0.0704
     31 H          -2.3511   -2.3534   -0.8721 H       1  UNL1        0.0814
     32 H          -4.8455   -2.6465   -0.7394 H       1  UNL1        0.1654
     33 H          -6.9431   -1.1199    0.2132 H       1  UNL1        0.0638
     34 H          -7.4475    0.9731    1.2566 H       1  UNL1        0.0618
     35 H          -5.7043    2.5251    1.8083 H       1  UNL1        0.0618
     36 H          -3.3910    1.9626    1.2946 H       1  UNL1        0.0624
@<TRIPOS>UNITY_ATOM_ATTR
10 1
charge 1
12 1
charge -1
@<TRIPOS>BOND
     1     1     2    2
     2     2     3   am
     3     2    14    1
     4     3     4    1
     5     4     5    1
     6     5     6   ar
     7     5    13   ar
     8     6     7   ar
     9     7     8   ar
    10     8     9   ar
    11     9    10    1
    12     9    13   ar
    13    10    11    2
    14    10    12    1
    15    14    15    2
    16    14    16    1
    17    16    17   ar
    18    16    24   ar
    19    17    18   ar
    20    18    19   ar
    21    19    20   ar
    22    19    24   ar
    23    20    21   ar
    24    21    22   ar
    25    22    23   ar
    26    23    24   ar
    27     3    25    1
    28     4    26    1
    29     6    27    1
    30     7    28    1
    31     8    29    1
    32    13    30    1
    33    17    31    1
    34    18    32    1
    35    20    33    1
    36    21    34    1
    37    22    35    1
    38    23    36    1
@<TRIPOS>MOLECULE
../data/bude_mols_rdkit_confs2/molecule_68.pdb
 36 38 0 0 0
SMALL
GASTEIGER

@<TRIPOS>ATOM
      1 O          -0.0790   -0.3270    1.8410 O.2     1  UNL1       -0.2651
      2 C           0.0540   -0.7730    0.6850 C.2     1  UNL1        0.3005
      3 N          -1.0940   -1.2590    0.0120 N.am    1  UNL1       -0.2298
      4 N          -2.3480   -1.2430    0.6200 N.pl3   1  UNL1       -0.2639
      5 C          -3.4130   -0.5910   -0.0600 C.ar    1  UNL1        0.0508
      6 C          -3.2070    0.0190   -1.3020 C.ar    1  UNL1       -0.0390
      7 C          -4.2670    0.6360   -1.9220 C.ar    1  UNL1       -0.0536
      8 C          -5.5280    0.6840   -1.3780 C.ar    1  UNL1        0.0157
      9 C          -5.7490    0.0820   -0.1430 C.ar    1  UNL1        0.2750
     10 N          -7.0280    0.1130    0.4450 N.pl3   1  UNL1        0.0797
     11 O          -7.2110   -0.4210    1.5420 O.2     1  UNL1        0.0414
     12 O          -8.0600    0.7290   -0.1920 O.co2   1  UNL1       -0.5760
     13 C          -4.6760   -0.5350    0.4700 C.ar    1  UNL1        0.0379
     14 C           1.3390   -0.8070    0.0160 C.2     1  UNL1        0.2507
     15 O           1.4240   -1.2720   -1.1740 O.2     1  UNL1       -0.2816
     16 C           2.5570   -0.3250    0.6540 C.ar    1  UNL1        0.0519
     17 C           2.7310    0.1900    1.9190 C.ar    1  UNL1        0.0137
     18 N           4.0380    0.5100    2.0920 N.ar    1  UNL1       -0.3599
     19 C           4.7430    0.2220    0.9750 C.ar    1  UNL1        0.0472
     20 C           6.0880    0.3680    0.6660 C.ar    1  UNL1       -0.0378
     21 C           6.5600   -0.0090   -0.5710 C.ar    1  UNL1       -0.0598
     22 C           5.6580   -0.5270   -1.4740 C.ar    1  UNL1       -0.0611
     23 C           4.3160   -0.6740   -1.1680 C.ar    1  UNL1       -0.0519
     24 C           3.8270   -0.2950    0.0830 C.ar    1  UNL1        0.0106
     25 H          -1.0043   -1.6145   -0.9017 H       1  UNL1        0.1731
     26 H          -2.4922   -1.6707    1.4949 H       1  UNL1        0.1700
     27 H          -2.2750    0.0059   -1.7450 H       1  UNL1        0.0636
     28 H          -4.1087    1.0838   -2.8382 H       1  UNL1        0.0620
     29 H          -6.2973    1.1580   -1.8764 H       1  UNL1        0.0685
     30 H          -4.8354   -0.9827    1.3861 H       1  UNL1        0.0704
     31 H           1.9864    0.3129    2.6229 H       1  UNL1        0.0814
     32 H           4.4186    0.8967    2.9135 H       1  UNL1        0.1654
     33 H           6.7367    0.7606    1.3661 H       1  UNL1        0.0638
     34 H           7.5578    0.0932   -0.8140 H       1  UNL1        0.0618
     35 H           5.9928   -0.8142   -2.4070 H       1  UNL1        0.0618
     36 H           3.6713   -1.0674   -1.8713 H       1  UNL1        0.0624
@<TRIPOS>UNITY_ATOM_ATTR
10 1
charge 1
12 1
charge -1
@<TRIPOS>BOND
     1     1     2    2
     2     2     3   am
     3     2    14    1
     4     3     4    1
     5     4     5    1
     6     5     6   ar
     7     5    13   ar
     8     6     7   ar
     9     7     8   ar
    10     8     9   ar
    11     9    10    1
    12     9    13   ar
    13    10    11    2
    14    10    12    1
    15    14    15    2
    16    14    16    1
    17    16    17   ar
    18    16    24   ar
    19    17    18   ar
    20    18    19   ar
    21    19    20   ar
    22    19    24   ar
    23    20    21   ar
    24    21    22   ar
    25    22    23   ar
    26    23    24   ar
    27     3    25    1
    28     4    26    1
    29     6    27    1
    30     7    28    1
    31     8    29    1
    32    13    30    1
    33    17    31    1
    34    18    32    1
    35    20    33    1
    36    21    34    1
    37    22    35    1
    38    23    36    1
@<TRIPOS>MOLECULE
../data/bude_mols_rdkit_confs2/molecule_68.pdb
 36 38 0 0 0
SMALL
GASTEIGER

@<TRIPOS>ATOM
      1 O          -0.3610    0.9540   -0.5740 O.2     1  UNL1       -0.2651
      2 C           0.0840    0.6240    0.5550 C.2     1  UNL1        0.3005
      3 N          -0.8350    0.6970    1.6350 N.am    1  UNL1       -0.2298
      4 N          -2.1550    1.0950    1.5610 N.pl3   1  UNL1       -0.2639
      5 C          -3.2010    0.4280    0.9070 C.ar    1  UNL1        0.0508
      6 C          -2.9990   -0.7570    0.2330 C.ar    1  UNL1       -0.0390
      7 C          -4.0820   -1.3720   -0.3980 C.ar    1  UNL1       -0.0536
      8 C          -5.3550   -0.8420   -0.3750 C.ar    1  UNL1        0.0157
      9 C          -5.5550    0.3400    0.2980 C.ar    1  UNL1        0.2750
     10 N          -6.8530    0.8990    0.3320 N.pl3   1  UNL1        0.0797
     11 O          -7.0610    1.9690    0.9300 O.2     1  UNL1        0.0414
     12 O          -7.8720    0.2430   -0.3050 O.co2   1  UNL1       -0.5760
     13 C          -4.4700    0.9470    0.9240 C.ar    1  UNL1        0.0379
     14 C           1.4550    0.1960    0.7390 C.2     1  UNL1        0.2507
     15 O           1.8340   -0.1120    1.8890 O.2     1  UNL1       -0.2816
     16 C           2.4180    0.1050   -0.3470 C.ar    1  UNL1        0.0519
     17 C           2.1870    0.3440   -1.6800 C.ar    1  UNL1        0.0137
     18 N           3.3120    0.1580   -2.3820 N.ar    1  UNL1       -0.3599
     19 C           4.2700   -0.1990   -1.5130 C.ar    1  UNL1        0.0472
     20 C           5.6150   -0.5070   -1.7170 C.ar    1  UNL1       -0.0378
     21 C           6.3830   -0.8440   -0.6420 C.ar    1  UNL1       -0.0598
     22 C           5.8690   -0.8860    0.6180 C.ar    1  UNL1       -0.0611
     23 C           4.5330   -0.5830    0.8420 C.ar    1  UNL1       -0.0519
     24 C           3.7590   -0.2440   -0.2390 C.ar    1  UNL1        0.0106
     25 H          -0.4981    0.4386    2.5232 H       1  UNL1        0.1731
     26 H          -2.3866    1.9368    2.0159 H       1  UNL1        0.1700
     27 H          -2.0602   -1.1839    0.1952 H       1  UNL1        0.0636
     28 H          -3.9236   -2.2586   -0.9018 H       1  UNL1        0.0620
     29 H          -6.1365   -1.3199   -0.8503 H       1  UNL1        0.0685
     30 H          -4.6290    1.8339    1.4271 H       1  UNL1        0.0704
     31 H           1.2791    0.6257   -2.0816 H       1  UNL1        0.0814
     32 H           3.4168    0.2636   -3.3552 H       1  UNL1        0.1654
     33 H           6.0218   -0.4803   -2.6651 H       1  UNL1        0.0638
     34 H           7.3788   -1.0730   -0.7871 H       1  UNL1        0.0618
     35 H           6.4763   -1.1447    1.4113 H       1  UNL1        0.0618
     36 H           4.1338   -0.6119    1.7932 H       1  UNL1        0.0624
@<TRIPOS>UNITY_ATOM_ATTR
10 1
charge 1
12 1
charge -1
@<TRIPOS>BOND
     1     1     2    2
     2     2     3   am
     3     2    14    1
     4     3     4    1
     5     4     5    1
     6     5     6   ar
     7     5    13   ar
     8     6     7   ar
     9     7     8   ar
    10     8     9   ar
    11     9    10    1
    12     9    13   ar
    13    10    11    2
    14    10    12    1
    15    14    15    2
    16    14    16    1
    17    16    17   ar
    18    16    24   ar
    19    17    18   ar
    20    18    19   ar
    21    19    20   ar
    22    19    24   ar
    23    20    21   ar
    24    21    22   ar
    25    22    23   ar
    26    23    24   ar
    27     3    25    1
    28     4    26    1
    29     6    27    1
    30     7    28    1
    31     8    29    1
    32    13    30    1
    33    17    31    1
    34    18    32    1
    35    20    33    1
    36    21    34    1
    37    22    35    1
    38    23    36    1
@<TRIPOS>MOLECULE
../data/bude_mols_rdkit_confs2/molecule_68.pdb
 36 38 0 0 0
SMALL
GASTEIGER

@<TRIPOS>ATOM
      1 O           0.0760   -0.7740    1.7810 O.2     1  UNL1       -0.2651
      2 C           0.1590    0.0860    0.8960 C.2     1  UNL1        0.3005
      3 N          -1.0000    0.8800    0.6080 N.am    1  UNL1       -0.2298
      4 N          -2.1810    0.6940    1.3040 N.pl3   1  UNL1       -0.2639
      5 C          -3.4440    0.8350    0.6560 C.ar    1  UNL1        0.0508
      6 C          -4.0750    2.0670    0.5600 C.ar    1  UNL1       -0.0390
      7 C          -5.2960    2.2050   -0.0630 C.ar    1  UNL1       -0.0536
      8 C          -5.8820    1.0750   -0.5940 C.ar    1  UNL1        0.0157
      9 C          -5.3010   -0.1760   -0.5280 C.ar    1  UNL1        0.2750
     10 N          -5.9360   -1.3100   -1.0850 N.pl3   1  UNL1        0.0797
     11 O          -5.4100   -2.4280   -1.0190 O.2     1  UNL1        0.0414
     12 O          -7.1450   -1.1760   -1.7010 O.co2   1  UNL1       -0.5760
     13 C          -4.0650   -0.2410    0.1160 C.ar    1  UNL1        0.0379
     14 C           1.4010    0.2860    0.1680 C.2     1  UNL1        0.2507
     15 O           1.4590    1.1670   -0.7240 O.2     1  UNL1       -0.2816
     16 C           2.5640   -0.5150    0.4600 C.ar    1  UNL1        0.0519
     17 C           2.7190   -1.5320    1.3450 C.ar    1  UNL1        0.0137
     18 N           3.9740   -1.9810    1.2690 N.ar    1  UNL1       -0.3599
     19 C           4.6410   -1.2730    0.3480 C.ar    1  UNL1        0.0472
     20 C           5.9630   -1.3300   -0.1170 C.ar    1  UNL1       -0.0378
     21 C           6.3730   -0.4560   -1.0900 C.ar    1  UNL1       -0.0598
     22 C           5.5170    0.4810   -1.6250 C.ar    1  UNL1       -0.0611
     23 C           4.2010    0.5310   -1.1560 C.ar    1  UNL1       -0.0519
     24 C           3.7840   -0.3390   -0.1860 C.ar    1  UNL1        0.0106
     25 H          -0.9545    1.5675   -0.0953 H       1  UNL1        0.1731
     26 H          -2.1494    0.4610    2.2600 H       1  UNL1        0.1700
     27 H          -3.6189    2.8996    0.9648 H       1  UNL1        0.0636
     28 H          -5.7579    3.1254   -0.1303 H       1  UNL1        0.0620
     29 H          -6.7969    1.1687   -1.0622 H       1  UNL1        0.0685
     30 H          -3.5984   -1.1589    0.1847 H       1  UNL1        0.0704
     31 H           1.9870   -1.8982    1.9735 H       1  UNL1        0.0814
     32 H           4.3498   -2.7162    1.8051 H       1  UNL1        0.1654
     33 H           6.6214   -2.0240    0.2701 H       1  UNL1        0.0638
     34 H           7.3464   -0.5011   -1.4299 H       1  UNL1        0.0618
     35 H           5.8404    1.1327   -2.3569 H       1  UNL1        0.0618
     36 H           3.5427    1.2256   -1.5423 H       1  UNL1        0.0624
@<TRIPOS>UNITY_ATOM_ATTR
10 1
charge 1
12 1
charge -1
@<TRIPOS>BOND
     1     1     2    2
     2     2     3   am
     3     2    14    1
     4     3     4    1
     5     4     5    1
     6     5     6   ar
     7     5    13   ar
     8     6     7   ar
     9     7     8   ar
    10     8     9   ar
    11     9    10    1
    12     9    13   ar
    13    10    11    2
    14    10    12    1
    15    14    15    2
    16    14    16    1
    17    16    17   ar
    18    16    24   ar
    19    17    18   ar
    20    18    19   ar
    21    19    20   ar
    22    19    24   ar
    23    20    21   ar
    24    21    22   ar
    25    22    23   ar
    26    23    24   ar
    27     3    25    1
    28     4    26    1
    29     6    27    1
    30     7    28    1
    31     8    29    1
    32    13    30    1
    33    17    31    1
    34    18    32    1
    35    20    33    1
    36    21    34    1
    37    22    35    1
    38    23    36    1
@<TRIPOS>MOLECULE
../data/bude_mols_rdkit_confs2/molecule_68.pdb
 36 38 0 0 0
SMALL
GASTEIGER

@<TRIPOS>ATOM
      1 O          -0.0530    1.3710    1.0190 O.2     1  UNL1       -0.2651
      2 C          -0.1650    0.2240    0.5420 C.2     1  UNL1        0.3005
      3 N           1.0850   -0.5030    0.4200 N.am    1  UNL1       -0.2298
      4 N           2.2610    0.1110    0.8350 N.pl3   1  UNL1       -0.2639
      5 C           3.4640    0.1140    0.1020 C.ar    1  UNL1        0.0508
      6 C           3.6010    0.7810   -1.1100 C.ar    1  UNL1       -0.0390
      7 C           4.8070    0.7790   -1.7660 C.ar    1  UNL1       -0.0536
      8 C           5.8990    0.1260   -1.2490 C.ar    1  UNL1        0.0157
      9 C           5.7620   -0.5340   -0.0480 C.ar    1  UNL1        0.2750
     10 N           6.8510   -1.2300    0.5560 N.pl3   1  UNL1        0.0797
     11 O           6.7340   -1.8310    1.6150 O.2     1  UNL1        0.0414
     12 O           8.0850   -1.2060   -0.0850 O.co2   1  UNL1       -0.5760
     13 C           4.5530   -0.5440    0.6270 C.ar    1  UNL1        0.0379
     14 C          -1.4140   -0.3760    0.1240 C.2     1  UNL1        0.2507
     15 O          -1.4070   -1.5520   -0.3100 O.2     1  UNL1       -0.2816
     16 C          -2.6650    0.3800    0.2080 C.ar    1  UNL1        0.0519
     17 C          -2.8640    1.6840    0.6010 C.ar    1  UNL1        0.0137
     18 N          -4.1920    1.9800    0.5070 N.ar    1  UNL1       -0.3599
     19 C          -4.8590    0.9060    0.0660 C.ar    1  UNL1        0.0472
     20 C          -6.1940    0.6560   -0.2060 C.ar    1  UNL1       -0.0378
     21 C          -6.6630   -0.5580   -0.6640 C.ar    1  UNL1       -0.0598
     22 C          -5.7160   -1.5540   -0.8500 C.ar    1  UNL1       -0.0611
     23 C          -4.3780   -1.3090   -0.5800 C.ar    1  UNL1       -0.0519
     24 C          -3.9390   -0.1010   -0.1280 C.ar    1  UNL1        0.0106
     25 H           1.0999   -1.4151    0.0498 H       1  UNL1        0.1731
     26 H           2.2526    0.5766    1.7024 H       1  UNL1        0.1700
     27 H           2.7942    1.2789   -1.5176 H       1  UNL1        0.0636
     28 H           4.8947    1.2779   -2.6651 H       1  UNL1        0.0620
     29 H           6.8017    0.1298   -1.7491 H       1  UNL1        0.0685
     30 H           4.4683   -1.0455    1.5250 H       1  UNL1        0.0704
     31 H          -2.1266    2.3335    0.9162 H       1  UNL1        0.0814
     32 H          -4.5976    2.8491    0.7291 H       1  UNL1        0.1654
     33 H          -6.8739    1.4182   -0.0582 H       1  UNL1        0.0638
     34 H          -7.6642   -0.7163   -0.8577 H       1  UNL1        0.0618
     35 H          -6.0087   -2.4829   -1.1913 H       1  UNL1        0.0618
     36 H          -3.6924   -2.0664   -0.7262 H       1  UNL1        0.0624
@<TRIPOS>UNITY_ATOM_ATTR
10 1
charge 1
12 1
charge -1
@<TRIPOS>BOND
     1     1     2    2
     2     2     3   am
     3     2    14    1
     4     3     4    1
     5     4     5    1
     6     5     6   ar
     7     5    13   ar
     8     6     7   ar
     9     7     8   ar
    10     8     9   ar
    11     9    10    1
    12     9    13   ar
    13    10    11    2
    14    10    12    1
    15    14    15    2
    16    14    16    1
    17    16    17   ar
    18    16    24   ar
    19    17    18   ar
    20    18    19   ar
    21    19    20   ar
    22    19    24   ar
    23    20    21   ar
    24    21    22   ar
    25    22    23   ar
    26    23    24   ar
    27     3    25    1
    28     4    26    1
    29     6    27    1
    30     7    28    1
    31     8    29    1
    32    13    30    1
    33    17    31    1
    34    18    32    1
    35    20    33    1
    36    21    34    1
    37    22    35    1
    38    23    36    1
@<TRIPOS>MOLECULE
../data/bude_mols_rdkit_confs2/molecule_68.pdb
 36 38 0 0 0
SMALL
GASTEIGER

@<TRIPOS>ATOM
      1 O          -0.5290    0.2910    1.0600 O.2     1  UNL1       -0.2651
      2 C          -0.0930   -0.8340    0.6230 C.2     1  UNL1        0.3005
      3 N          -1.0690   -1.8670    0.5880 N.am    1  UNL1       -0.2298
      4 N          -2.3790   -1.6420    1.0030 N.pl3   1  UNL1       -0.2639
      5 C          -3.2080   -0.7280    0.2560 C.ar    1  UNL1        0.0508
      6 C          -2.7410   -0.1380   -0.8840 C.ar    1  UNL1       -0.0390
      7 C          -3.5830    0.7490   -1.5460 C.ar    1  UNL1       -0.0536
      8 C          -4.8520    1.0480   -1.1000 C.ar    1  UNL1        0.0157
      9 C          -5.3080    0.4460    0.0490 C.ar    1  UNL1        0.2750
     10 N          -6.6100    0.7530    0.5020 N.pl3   1  UNL1        0.0797
     11 O          -7.3030    1.5670   -0.1190 O.2     1  UNL1        0.0414
     12 O          -7.1600    0.1830    1.6280 O.co2   1  UNL1       -0.5760
     13 C          -4.4750   -0.4390    0.7150 C.ar    1  UNL1        0.0379
     14 C           1.2760   -0.9980    0.2100 C.2     1  UNL1        0.2507
     15 O           1.6080   -2.1720   -0.1770 O.2     1  UNL1       -0.2816
     16 C           2.2580    0.0620    0.2110 C.ar    1  UNL1        0.0519
     17 C           2.0390    1.3860    0.4960 C.ar    1  UNL1        0.0137
     18 N           3.2400    2.0140    0.3640 N.ar    1  UNL1       -0.3599
     19 C           4.1890    1.1500    0.0130 C.ar    1  UNL1        0.0472
     20 C           5.5590    1.2730   -0.2410 C.ar    1  UNL1       -0.0378
     21 C           6.2870    0.1620   -0.5880 C.ar    1  UNL1       -0.0598
     22 C           5.7160   -1.0720   -0.6950 C.ar    1  UNL1       -0.0611
     23 C           4.3700   -1.1990   -0.4460 C.ar    1  UNL1       -0.0519
     24 C           3.6160   -0.1040   -0.0970 C.ar    1  UNL1        0.0106
     25 H          -0.8133   -2.7606    0.2634 H       1  UNL1        0.1731
     26 H          -2.7354   -2.1016    1.7974 H       1  UNL1        0.1700
     27 H          -1.7952   -0.3436   -1.2420 H       1  UNL1        0.0636
     28 H          -3.2428    1.2027   -2.4082 H       1  UNL1        0.0620
     29 H          -5.4489    1.7112   -1.6186 H       1  UNL1        0.0685
     30 H          -4.8125   -0.8938    1.5777 H       1  UNL1        0.0704
     31 H           1.1406    1.8206    0.7588 H       1  UNL1        0.0814
     32 H           3.3863    2.9768    0.5087 H       1  UNL1        0.1654
     33 H           6.0198    2.1935   -0.1680 H       1  UNL1        0.0638
     34 H           7.2971    0.2636   -0.7735 H       1  UNL1        0.0618
     35 H           6.2828   -1.8935   -0.9575 H       1  UNL1        0.0618
     36 H           3.9214   -2.1253   -0.5218 H       1  UNL1        0.0624
@<TRIPOS>UNITY_ATOM_ATTR
10 1
charge 1
12 1
charge -1
@<TRIPOS>BOND
     1     1     2    2
     2     2     3   am
     3     2    14    1
     4     3     4    1
     5     4     5    1
     6     5     6   ar
     7     5    13   ar
     8     6     7   ar
     9     7     8   ar
    10     8     9   ar
    11     9    10    1
    12     9    13   ar
    13    10    11    2
    14    10    12    1
    15    14    15    2
    16    14    16    1
    17    16    17   ar
    18    16    24   ar
    19    17    18   ar
    20    18    19   ar
    21    19    20   ar
    22    19    24   ar
    23    20    21   ar
    24    21    22   ar
    25    22    23   ar
    26    23    24   ar
    27     3    25    1
    28     4    26    1
    29     6    27    1
    30     7    28    1
    31     8    29    1
    32    13    30    1
    33    17    31    1
    34    18    32    1
    35    20    33    1
    36    21    34    1
    37    22    35    1
    38    23    36    1
@<TRIPOS>MOLECULE
../data/bude_mols_rdkit_confs2/molecule_68.pdb
 36 38 0 0 0
SMALL
GASTEIGER

@<TRIPOS>ATOM
      1 O          -0.6940   -1.4820    0.2740 O.2     1  UNL1       -0.2651
      2 C          -0.3120   -0.3690    0.7110 C.2     1  UNL1        0.3005
      3 N           1.1110   -0.2160    0.7870 N.am    1  UNL1       -0.2298
      4 N           2.0160   -1.2110    0.4040 N.pl3   1  UNL1       -0.2639
      5 C           3.1890   -0.8110   -0.2770 C.ar    1  UNL1        0.0508
      6 C           3.1630   -0.7000   -1.6410 C.ar    1  UNL1       -0.0390
      7 C           4.2950   -0.2940   -2.3270 C.ar    1  UNL1       -0.0536
      8 C           5.4780    0.0120   -1.6780 C.ar    1  UNL1        0.0157
      9 C           5.5000   -0.1010   -0.3110 C.ar    1  UNL1        0.2750
     10 N           6.6630    0.1890    0.4320 N.pl3   1  UNL1        0.0797
     11 O           7.7010    0.5550   -0.1850 O.2     1  UNL1        0.0414
     12 O           6.7230    0.0900    1.8040 O.co2   1  UNL1       -0.5760
     13 C           4.3540   -0.5120    0.3820 C.ar    1  UNL1        0.0379
     14 C          -1.1820    0.6830    1.1170 C.2     1  UNL1        0.2507
     15 O          -0.5420    1.7280    1.6000 O.2     1  UNL1       -0.2816
     16 C          -2.6210    0.7960    1.0900 C.ar    1  UNL1        0.0519
     17 C          -3.2890    1.4880    2.1090 C.ar    1  UNL1        0.0137
     18 N          -4.6050    1.4060    1.9100 N.ar    1  UNL1       -0.3599
     19 C          -4.8320    0.6820    0.7890 C.ar    1  UNL1        0.0472
     20 C          -5.9800    0.3020    0.1250 C.ar    1  UNL1       -0.0378
     21 C          -5.9150   -0.4370   -1.0220 C.ar    1  UNL1       -0.0598
     22 C          -4.6930   -0.8120   -1.5330 C.ar    1  UNL1       -0.0611
     23 C          -3.5210   -0.4490   -0.8940 C.ar    1  UNL1       -0.0519
     24 C          -3.6030    0.3030    0.2790 C.ar    1  UNL1        0.0106
     25 H           1.4706    0.6351    1.1270 H       1  UNL1        0.1731
     26 H           1.8420   -2.1595    0.6021 H       1  UNL1        0.1700
     27 H           2.2979   -0.9194   -2.1591 H       1  UNL1        0.0636
     28 H           4.2551   -0.2171   -3.3554 H       1  UNL1        0.0620
     29 H           6.3134    0.3142   -2.2032 H       1  UNL1        0.0685
     30 H           4.3871   -0.5915    1.4104 H       1  UNL1        0.0704
     31 H          -2.8336    1.9837    2.8913 H       1  UNL1        0.0814
     32 H          -5.2976    1.8062    2.4840 H       1  UNL1        0.1654
     33 H          -6.9005    0.5798    0.5000 H       1  UNL1        0.0638
     34 H          -6.7831   -0.7145   -1.5061 H       1  UNL1        0.0618
     35 H          -4.6508   -1.3690   -2.4007 H       1  UNL1        0.0618
     36 H          -2.6044   -0.7286   -1.2769 H       1  UNL1        0.0624
@<TRIPOS>UNITY_ATOM_ATTR
10 1
charge 1
12 1
charge -1
@<TRIPOS>BOND
     1     1     2    2
     2     2     3   am
     3     2    14    1
     4     3     4    1
     5     4     5    1
     6     5     6   ar
     7     5    13   ar
     8     6     7   ar
     9     7     8   ar
    10     8     9   ar
    11     9    10    1
    12     9    13   ar
    13    10    11    2
    14    10    12    1
    15    14    15    2
    16    14    16    1
    17    16    17   ar
    18    16    24   ar
    19    17    18   ar
    20    18    19   ar
    21    19    20   ar
    22    19    24   ar
    23    20    21   ar
    24    21    22   ar
    25    22    23   ar
    26    23    24   ar
    27     3    25    1
    28     4    26    1
    29     6    27    1
    30     7    28    1
    31     8    29    1
    32    13    30    1
    33    17    31    1
    34    18    32    1
    35    20    33    1
    36    21    34    1
    37    22    35    1
    38    23    36    1
@<TRIPOS>MOLECULE
../data/bude_mols_rdkit_confs2/molecule_68.pdb
 36 38 0 0 0
SMALL
GASTEIGER

@<TRIPOS>ATOM
      1 O          -0.1010   -0.8630    2.0250 O.2     1  UNL1       -0.2651
      2 C          -0.0770   -0.6070    0.7670 C.2     1  UNL1        0.3005
      3 N           1.1580   -0.5960    0.0800 N.am    1  UNL1       -0.2298
      4 N           2.3240   -0.8600    0.7840 N.pl3   1  UNL1       -0.2639
      5 C           3.5480   -0.5580    0.1170 C.ar    1  UNL1        0.0508
      6 C           4.2000   -1.4890   -0.6550 C.ar    1  UNL1       -0.0390
      7 C           5.3700   -1.2220   -1.3270 C.ar    1  UNL1       -0.0536
      8 C           5.9220    0.0320   -1.2300 C.ar    1  UNL1        0.0157
      9 C           5.2970    1.0010   -0.4600 C.ar    1  UNL1        0.2750
     10 N           5.8790    2.2940   -0.3730 N.pl3   1  UNL1        0.0797
     11 O           6.9360    2.5510   -0.9730 O.2     1  UNL1        0.0414
     12 O           5.2460    3.2450    0.3830 O.co2   1  UNL1       -0.5760
     13 C           4.1200    0.7060    0.2070 C.ar    1  UNL1        0.0379
     14 C          -1.3080   -0.3310    0.0610 C.2     1  UNL1        0.2507
     15 O          -1.2310   -0.1230   -1.1810 O.2     1  UNL1       -0.2816
     16 C          -2.6130   -0.2790    0.7000 C.ar    1  UNL1        0.0519
     17 C          -2.9480   -0.4790    2.0140 C.ar    1  UNL1        0.0137
     18 N          -4.2570   -0.3370    2.1750 N.ar    1  UNL1       -0.3599
     19 C          -4.8030   -0.0430    0.9900 C.ar    1  UNL1        0.0472
     20 C          -6.1170    0.1990    0.6240 C.ar    1  UNL1       -0.0378
     21 C          -6.4080    0.4850   -0.6940 C.ar    1  UNL1       -0.0598
     22 C          -5.4370    0.5390   -1.6680 C.ar    1  UNL1       -0.0611
     23 C          -4.1380    0.2930   -1.2770 C.ar    1  UNL1       -0.0519
     24 C          -3.8160    0.0050    0.0390 C.ar    1  UNL1        0.0106
     25 H           1.1905   -0.4036   -0.8850 H       1  UNL1        0.1731
     26 H           2.3074   -1.2352    1.6940 H       1  UNL1        0.1700
     27 H           3.7924   -2.4337   -0.7344 H       1  UNL1        0.0636
     28 H           5.8262   -1.9527   -1.8954 H       1  UNL1        0.0620
     29 H           6.7985    0.2521   -1.7283 H       1  UNL1        0.0685
     30 H           3.6617    1.4333    0.7780 H       1  UNL1        0.0704
     31 H          -2.2802   -0.7065    2.7672 H       1  UNL1        0.0814
     32 H          -4.7450   -0.4321    3.0247 H       1  UNL1        0.1654
     33 H          -6.8697    0.1657    1.3292 H       1  UNL1        0.0638
     34 H          -7.3890    0.6649   -0.9591 H       1  UNL1        0.0618
     35 H          -5.6714    0.7546   -2.6496 H       1  UNL1        0.0618
     36 H          -3.3861    0.3243   -1.9832 H       1  UNL1        0.0624
@<TRIPOS>UNITY_ATOM_ATTR
10 1
charge 1
12 1
charge -1
@<TRIPOS>BOND
     1     1     2    2
     2     2     3   am
     3     2    14    1
     4     3     4    1
     5     4     5    1
     6     5     6   ar
     7     5    13   ar
     8     6     7   ar
     9     7     8   ar
    10     8     9   ar
    11     9    10    1
    12     9    13   ar
    13    10    11    2
    14    10    12    1
    15    14    15    2
    16    14    16    1
    17    16    17   ar
    18    16    24   ar
    19    17    18   ar
    20    18    19   ar
    21    19    20   ar
    22    19    24   ar
    23    20    21   ar
    24    21    22   ar
    25    22    23   ar
    26    23    24   ar
    27     3    25    1
    28     4    26    1
    29     6    27    1
    30     7    28    1
    31     8    29    1
    32    13    30    1
    33    17    31    1
    34    18    32    1
    35    20    33    1
    36    21    34    1
    37    22    35    1
    38    23    36    1
@<TRIPOS>MOLECULE
../data/bude_mols_rdkit_confs2/molecule_68.pdb
 36 38 0 0 0
SMALL
GASTEIGER

@<TRIPOS>ATOM
      1 O          -0.8000    1.1090   -0.4170 O.2     1  UNL1       -0.2651
      2 C          -0.3570    0.0160    0.0410 C.2     1  UNL1        0.3005
      3 N           1.0200   -0.1350    0.3640 N.am    1  UNL1       -0.2298
      4 N           1.8920    0.9590    0.1440 N.pl3   1  UNL1       -0.2639
      5 C           3.1150    0.6260   -0.4820 C.ar    1  UNL1        0.0508
      6 C           3.1390    0.3610   -1.8220 C.ar    1  UNL1       -0.0390
      7 C           4.3360    0.0230   -2.4410 C.ar    1  UNL1       -0.0536
      8 C           5.4830   -0.0450   -1.7080 C.ar    1  UNL1        0.0157
      9 C           5.4860    0.2220   -0.3410 C.ar    1  UNL1        0.2750
     10 N           6.6330    0.1680    0.4590 N.pl3   1  UNL1        0.0797
     11 O           7.7630   -0.1300   -0.0040 O.2     1  UNL1        0.0414
     12 O           6.5900    0.4380    1.7980 O.co2   1  UNL1       -0.5760
     13 C           4.2700    0.5600    0.2590 C.ar    1  UNL1        0.0379
     14 C          -1.2130   -1.1310    0.2580 C.2     1  UNL1        0.2507
     15 O          -0.6910   -2.2710    0.5710 O.2     1  UNL1       -0.2816
     16 C          -2.6500   -1.1510    0.1530 C.ar    1  UNL1        0.0519
     17 C          -3.3690   -2.1660   -0.5040 C.ar    1  UNL1        0.0137
     18 N          -4.6520   -1.7960   -0.4320 N.ar    1  UNL1       -0.3599
     19 C          -4.7790   -0.6130    0.2320 C.ar    1  UNL1        0.0472
     20 C          -5.8540    0.1680    0.5840 C.ar    1  UNL1       -0.0378
     21 C          -5.7210    1.3400    1.2920 C.ar    1  UNL1       -0.0598
     22 C          -4.4620    1.7790    1.6810 C.ar    1  UNL1       -0.0611
     23 C          -3.3850    0.9980    1.3290 C.ar    1  UNL1       -0.0519
     24 C          -3.5140   -0.1890    0.6110 C.ar    1  UNL1        0.0106
     25 H           1.3597   -0.9822    0.7328 H       1  UNL1        0.1731
     26 H           1.6641    1.8800    0.4067 H       1  UNL1        0.1700
     27 H           2.2686    0.4119   -2.3741 H       1  UNL1        0.0636
     28 H           4.3566   -0.1761   -3.4534 H       1  UNL1        0.0620
     29 H           6.3672   -0.2995   -2.1753 H       1  UNL1        0.0685
     30 H           4.2393    0.7624    1.2705 H       1  UNL1        0.0704
     31 H          -2.9872   -3.0160   -0.9476 H       1  UNL1        0.0814
     32 H          -5.4034   -2.3091   -0.8080 H       1  UNL1        0.1654
     33 H          -6.7997   -0.1374    0.3057 H       1  UNL1        0.0638
     34 H          -6.5576    1.8936    1.5343 H       1  UNL1        0.0618
     35 H          -4.3392    2.6551    2.2123 H       1  UNL1        0.0618
     36 H          -2.4404    1.3050    1.6091 H       1  UNL1        0.0624
@<TRIPOS>UNITY_ATOM_ATTR
10 1
charge 1
12 1
charge -1
@<TRIPOS>BOND
     1     1     2    2
     2     2     3   am
     3     2    14    1
     4     3     4    1
     5     4     5    1
     6     5     6   ar
     7     5    13   ar
     8     6     7   ar
     9     7     8   ar
    10     8     9   ar
    11     9    10    1
    12     9    13   ar
    13    10    11    2
    14    10    12    1
    15    14    15    2
    16    14    16    1
    17    16    17   ar
    18    16    24   ar
    19    17    18   ar
    20    18    19   ar
    21    19    20   ar
    22    19    24   ar
    23    20    21   ar
    24    21    22   ar
    25    22    23   ar
    26    23    24   ar
    27     3    25    1
    28     4    26    1
    29     6    27    1
    30     7    28    1
    31     8    29    1
    32    13    30    1
    33    17    31    1
    34    18    32    1
    35    20    33    1
    36    21    34    1
    37    22    35    1
    38    23    36    1
@<TRIPOS>MOLECULE
../data/bude_mols_rdkit_confs2/molecule_68.pdb
 36 38 0 0 0
SMALL
GASTEIGER

@<TRIPOS>ATOM
      1 O          -0.7910    0.7840   -1.0270 O.2     1  UNL1       -0.2651
      2 C          -0.3910    0.0920   -0.0670 C.2     1  UNL1        0.3005
      3 N           1.0300   -0.2020   -0.0300 N.am    1  UNL1       -0.2298
      4 N           1.8860    0.2730   -1.0250 N.pl3   1  UNL1       -0.2639
      5 C           3.2320    0.5230   -0.6240 C.ar    1  UNL1        0.0508
      6 C           3.6260    1.7640   -0.1710 C.ar    1  UNL1       -0.0390
      7 C           4.9510    1.9610    0.2130 C.ar    1  UNL1       -0.0536
      8 C           5.8910    0.9530    0.1580 C.ar    1  UNL1        0.0157
      9 C           5.5050   -0.2880   -0.2940 C.ar    1  UNL1        0.2750
     10 N           6.4760   -1.3310   -0.3510 N.pl3   1  UNL1        0.0797
     11 O           7.6500   -1.1200    0.0010 O.2     1  UNL1        0.0414
     12 O           6.1540   -2.5890   -0.7900 O.co2   1  UNL1       -0.5760
     13 C           4.1990   -0.4730   -0.6700 C.ar    1  UNL1        0.0379
     14 C          -1.2350   -0.4180    0.9790 C.2     1  UNL1        0.2507
     15 O          -0.6980   -1.0500    1.9830 O.2     1  UNL1       -0.2816
     16 C          -2.6780   -0.3230    1.0890 C.ar    1  UNL1        0.0519
     17 C          -3.3660   -0.1060    2.3020 C.ar    1  UNL1        0.0137
     18 N          -4.6740    0.0050    2.0840 N.ar    1  UNL1       -0.3599
     19 C          -4.8840   -0.1300    0.7640 C.ar    1  UNL1        0.0472
     20 C          -6.0520   -0.1120    0.0170 C.ar    1  UNL1       -0.0378
     21 C          -5.9950   -0.2990   -1.3510 C.ar    1  UNL1       -0.0598
     22 C          -4.8120   -0.5040   -2.0020 C.ar    1  UNL1       -0.0611
     23 C          -3.6480   -0.5200   -1.2340 C.ar    1  UNL1       -0.0519
     24 C          -3.6590   -0.3360    0.1290 C.ar    1  UNL1        0.0106
     25 H           1.3949   -0.7436    0.7067 H       1  UNL1        0.1731
     26 H           1.5793    0.4262   -1.9479 H       1  UNL1        0.1700
     27 H           2.9467    2.5390   -0.1168 H       1  UNL1        0.0636
     28 H           5.2388    2.8930    0.5501 H       1  UNL1        0.0620
     29 H           6.8654    1.1263    0.4503 H       1  UNL1        0.0685
     30 H           3.9183   -1.4072   -1.0069 H       1  UNL1        0.0704
     31 H          -2.9171   -0.0423    3.2291 H       1  UNL1        0.0814
     32 H          -5.3649    0.1587    2.7683 H       1  UNL1        0.1654
     33 H          -6.9610    0.0406    0.4812 H       1  UNL1        0.0638
     34 H          -6.8711   -0.2833   -1.8961 H       1  UNL1        0.0618
     35 H          -4.7806   -0.6419   -3.0243 H       1  UNL1        0.0618
     36 H          -2.7438   -0.6759   -1.7064 H       1  UNL1        0.0624
@<TRIPOS>UNITY_ATOM_ATTR
10 1
charge 1
12 1
charge -1
@<TRIPOS>BOND
     1     1     2    2
     2     2     3   am
     3     2    14    1
     4     3     4    1
     5     4     5    1
     6     5     6   ar
     7     5    13   ar
     8     6     7   ar
     9     7     8   ar
    10     8     9   ar
    11     9    10    1
    12     9    13   ar
    13    10    11    2
    14    10    12    1
    15    14    15    2
    16    14    16    1
    17    16    17   ar
    18    16    24   ar
    19    17    18   ar
    20    18    19   ar
    21    19    20   ar
    22    19    24   ar
    23    20    21   ar
    24    21    22   ar
    25    22    23   ar
    26    23    24   ar
    27     3    25    1
    28     4    26    1
    29     6    27    1
    30     7    28    1
    31     8    29    1
    32    13    30    1
    33    17    31    1
    34    18    32    1
    35    20    33    1
    36    21    34    1
    37    22    35    1
    38    23    36    1
@<TRIPOS>MOLECULE
../data/bude_mols_rdkit_confs2/molecule_68.pdb
 36 38 0 0 0
SMALL
GASTEIGER

@<TRIPOS>ATOM
      1 O           0.1540   -1.5320    1.4190 O.2     1  UNL1       -0.2651
      2 C           0.1650   -0.5910    0.6100 C.2     1  UNL1        0.3005
      3 N          -1.1030   -0.0930    0.1470 N.am    1  UNL1       -0.2298
      4 N          -2.3010   -0.6400    0.5920 N.pl3   1  UNL1       -0.2639
      5 C          -3.5340   -0.1090    0.1530 C.ar    1  UNL1        0.0508
      6 C          -3.8910    1.1670    0.5240 C.ar    1  UNL1       -0.0390
      7 C          -5.1120    1.7030    0.1200 C.ar    1  UNL1       -0.0536
      8 C          -5.9490    0.9200   -0.6600 C.ar    1  UNL1        0.0157
      9 C          -5.5710   -0.3670   -1.0260 C.ar    1  UNL1        0.2750
     10 N          -6.4470   -1.1400   -1.8130 N.pl3   1  UNL1        0.0797
     11 O          -7.5520   -0.6980   -2.1950 O.2     1  UNL1        0.0414
     12 O          -6.1260   -2.4170   -2.1960 O.co2   1  UNL1       -0.5760
     13 C          -4.3550   -0.8950   -0.6220 C.ar    1  UNL1        0.0379
     14 C           1.3590    0.0510    0.0950 C.2     1  UNL1        0.2507
     15 O           1.2620    1.0110   -0.7350 O.2     1  UNL1       -0.2816
     16 C           2.6830   -0.3840    0.5130 C.ar    1  UNL1        0.0519
     17 C           3.0140   -1.4110    1.3490 C.ar    1  UNL1        0.0137
     18 N           4.3720   -1.4840    1.4770 N.ar    1  UNL1       -0.3599
     19 C           4.8950   -0.5140    0.7300 C.ar    1  UNL1        0.0472
     20 C           6.2160   -0.1450    0.5080 C.ar    1  UNL1       -0.0378
     21 C           6.4880    0.9200   -0.3220 C.ar    1  UNL1       -0.0598
     22 C           5.5000    1.6340   -0.9430 C.ar    1  UNL1       -0.0611
     23 C           4.1870    1.2620   -0.7190 C.ar    1  UNL1       -0.0519
     24 C           3.8860    0.2020    0.1070 C.ar    1  UNL1        0.0106
     25 H          -1.1226    0.6504   -0.4982 H       1  UNL1        0.1731
     26 H          -2.2900   -1.4012    1.2162 H       1  UNL1        0.1700
     27 H          -3.2506    1.7304    1.1049 H       1  UNL1        0.0636
     28 H          -5.3865    2.6592    0.3946 H       1  UNL1        0.0620
     29 H          -6.8588    1.2949   -0.9711 H       1  UNL1        0.0685
     30 H          -4.0737   -1.8498   -0.8945 H       1  UNL1        0.0704
     31 H           2.3395   -2.0382    1.8145 H       1  UNL1        0.0814
     32 H           4.8720   -2.1342    2.0215 H       1  UNL1        0.1654
     33 H           6.9853   -0.6634    0.9602 H       1  UNL1        0.0638
     34 H           7.4716    1.1888   -0.4810 H       1  UNL1        0.0618
     35 H           5.7281    2.4281   -1.5614 H       1  UNL1        0.0618
     36 H           3.4238    1.7849   -1.1762 H       1  UNL1        0.0624
@<TRIPOS>UNITY_ATOM_ATTR
10 1
charge 1
12 1
charge -1
@<TRIPOS>BOND
     1     1     2    2
     2     2     3   am
     3     2    14    1
     4     3     4    1
     5     4     5    1
     6     5     6   ar
     7     5    13   ar
     8     6     7   ar
     9     7     8   ar
    10     8     9   ar
    11     9    10    1
    12     9    13   ar
    13    10    11    2
    14    10    12    1
    15    14    15    2
    16    14    16    1
    17    16    17   ar
    18    16    24   ar
    19    17    18   ar
    20    18    19   ar
    21    19    20   ar
    22    19    24   ar
    23    20    21   ar
    24    21    22   ar
    25    22    23   ar
    26    23    24   ar
    27     3    25    1
    28     4    26    1
    29     6    27    1
    30     7    28    1
    31     8    29    1
    32    13    30    1
    33    17    31    1
    34    18    32    1
    35    20    33    1
    36    21    34    1
    37    22    35    1
    38    23    36    1
@<TRIPOS>MOLECULE
../data/bude_mols_rdkit_confs2/molecule_68.pdb
 36 38 0 0 0
SMALL
GASTEIGER

@<TRIPOS>ATOM
      1 O           0.5030   -0.3820   -1.3300 O.2     1  UNL1       -0.2651
      2 C           0.3560    0.7430   -0.8000 C.2     1  UNL1        0.3005
      3 N          -1.0090    1.1470   -0.6250 N.am    1  UNL1       -0.2298
      4 N          -2.0790    0.3690   -1.0050 N.pl3   1  UNL1       -0.2639
      5 C          -3.2410    0.1420   -0.2310 C.ar    1  UNL1        0.0508
      6 C          -3.3800    0.7090    1.0210 C.ar    1  UNL1       -0.0390
      7 C          -4.5190    0.4910    1.7860 C.ar    1  UNL1       -0.0536
      8 C          -5.5400   -0.3020    1.3060 C.ar    1  UNL1        0.0157
      9 C          -5.4250   -0.8790    0.0600 C.ar    1  UNL1        0.2750
     10 N          -6.4740   -1.6990   -0.4460 N.pl3   1  UNL1        0.0797
     11 O          -7.4970   -1.9050    0.2210 O.2     1  UNL1        0.0414
     12 O          -6.3660   -2.2740   -1.6850 O.co2   1  UNL1       -0.5760
     13 C          -4.2870   -0.6430   -0.6690 C.ar    1  UNL1        0.0379
     14 C           1.4700    1.5680   -0.3990 C.2     1  UNL1        0.2507
     15 O           1.1290    2.7510    0.0430 O.2     1  UNL1       -0.2816
     16 C           2.8630    1.2870   -0.4210 C.ar    1  UNL1        0.0519
     17 C           3.8300    2.2510   -0.7420 C.ar    1  UNL1        0.0137
     18 N           5.0380    1.6660   -0.7440 N.ar    1  UNL1       -0.3599
     19 C           4.8830    0.3520   -0.4330 C.ar    1  UNL1        0.0472
     20 C           5.8440   -0.6280   -0.3060 C.ar    1  UNL1       -0.0378
     21 C           5.4490   -1.9020    0.0390 C.ar    1  UNL1       -0.0598
     22 C           4.1250   -2.1880    0.2520 C.ar    1  UNL1       -0.0611
     23 C           3.1890   -1.1790    0.1150 C.ar    1  UNL1       -0.0519
     24 C           3.5210    0.1130   -0.2300 C.ar    1  UNL1        0.0106
     25 H          -1.1893    2.0229   -0.2133 H       1  UNL1        0.1731
     26 H          -2.0317   -0.0649   -1.8875 H       1  UNL1        0.1700
     27 H          -2.6247    1.3048    1.3945 H       1  UNL1        0.0636
     28 H          -4.6015    0.9249    2.7187 H       1  UNL1        0.0620
     29 H          -6.3849   -0.4623    1.8764 H       1  UNL1        0.0685
     30 H          -4.2090   -1.0790   -1.6011 H       1  UNL1        0.0704
     31 H           3.6435    3.2458   -0.9434 H       1  UNL1        0.0814
     32 H           5.8931    2.1137   -0.9382 H       1  UNL1        0.1654
     33 H           6.8402   -0.4116   -0.4663 H       1  UNL1        0.0638
     34 H           6.1557   -2.6475    0.1380 H       1  UNL1        0.0618
     35 H           3.8310   -3.1428    0.5109 H       1  UNL1        0.0618
     36 H           2.1953   -1.4044    0.2789 H       1  UNL1        0.0624
@<TRIPOS>UNITY_ATOM_ATTR
10 1
charge 1
12 1
charge -1
@<TRIPOS>BOND
     1     1     2    2
     2     2     3   am
     3     2    14    1
     4     3     4    1
     5     4     5    1
     6     5     6   ar
     7     5    13   ar
     8     6     7   ar
     9     7     8   ar
    10     8     9   ar
    11     9    10    1
    12     9    13   ar
    13    10    11    2
    14    10    12    1
    15    14    15    2
    16    14    16    1
    17    16    17   ar
    18    16    24   ar
    19    17    18   ar
    20    18    19   ar
    21    19    20   ar
    22    19    24   ar
    23    20    21   ar
    24    21    22   ar
    25    22    23   ar
    26    23    24   ar
    27     3    25    1
    28     4    26    1
    29     6    27    1
    30     7    28    1
    31     8    29    1
    32    13    30    1
    33    17    31    1
    34    18    32    1
    35    20    33    1
    36    21    34    1
    37    22    35    1
    38    23    36    1
