@<TRIPOS>MOLECULE
../data/bude_mols_rdkit_confs2/molecule_8.pdb
 41 43 0 0 0
SMALL
GASTEIGER

@<TRIPOS>ATOM
      1  N1         6.2900   -0.2280   -1.4250 N.am    1  UNL1       -0.3253
      2  C1         5.2580   -0.5940   -0.5370 C.2     1  UNL1        0.2415
      3  O1         5.3070   -1.7070    0.0290 O.2     1  UNL1       -0.2704
      4  C2         4.1420    0.2880   -0.2640 C.ar    1  UNL1        0.0368
      5  C3         4.0490    1.5260   -0.8680 C.ar    1  UNL1       -0.0496
      6  C4         2.9800    2.3540   -0.5970 C.ar    1  UNL1       -0.0607
      7  C5         1.9810    1.9510    0.2890 C.ar    1  UNL1       -0.0568
      8  C6         2.0540    0.7190    0.9020 C.ar    1  UNL1       -0.0253
      9  C7         1.0370    0.2540    1.8380 C.3     1  UNL1        0.0703
     10  N2        -0.0850   -0.4310    1.2310 N.ar    1  UNL1       -0.2241
     11  N3        -1.1580    0.2250    0.8290 N.ar    1  UNL1       -0.1679
     12  C8        -2.2350   -0.3100    0.2590 C.ar    1  UNL1        0.0921
     13  C9        -3.3630    0.5000   -0.1470 C.ar    1  UNL1        0.0021
     14  C10       -3.2810    1.8740    0.0810 C.ar    1  UNL1       -0.0525
     15  C11       -4.3220    2.6890   -0.2850 C.ar    1  UNL1       -0.0611
     16  C12       -5.4650    2.1940   -0.8790 C.ar    1  UNL1       -0.0617
     17  C13       -5.5300    0.8310   -1.0970 C.ar    1  UNL1       -0.0611
     18  C14       -4.4840    0.0080   -0.7300 C.ar    1  UNL1       -0.0525
     19  C15       -2.2380   -1.6940    0.0670 C.ar    1  UNL1       -0.0171
     20  C16       -1.1500   -2.4260    0.4660 C.ar    1  UNL1        0.1225
     21  C17       -1.1520   -3.8920    0.2620 C.3     1  UNL1        0.4225
     22  F1        -0.0880   -4.2810   -0.5600 F       1  UNL1       -0.1657
     23  F2        -2.3500   -4.3720   -0.1670 F       1  UNL1       -0.1657
     24  F3        -0.8660   -4.4720    1.5060 F       1  UNL1       -0.1657
     25  C18       -0.0970   -1.7700    1.0410 C.ar    1  UNL1        0.2793
     26  O2         0.8930   -2.4220    1.4060 O.2     1  UNL1       -0.2656
     27  C19        3.1360   -0.0760    0.6060 C.ar    1  UNL1       -0.0447
     28 H           7.0374   -0.8465   -1.5929 H       1  UNL1        0.1453
     29 H           6.2633    0.6461   -1.8773 H       1  UNL1        0.1453
     30 H           4.7829    1.8332   -1.5253 H       1  UNL1        0.0625
     31 H           2.9188    3.2779   -1.0528 H       1  UNL1        0.0618
     32 H           1.1848    2.5773    0.4861 H       1  UNL1        0.0621
     33 H           0.6601    1.1037    2.3679 H       1  UNL1        0.0560
     34 H           1.5179   -0.4621    2.4711 H       1  UNL1        0.0560
     35 H          -2.4398    2.2759    0.5236 H       1  UNL1        0.0624
     36 H          -4.2481    3.7035   -0.1108 H       1  UNL1        0.0618
     37 H          -6.2413    2.8177   -1.1500 H       1  UNL1        0.0618
     38 H          -6.3692    0.4240   -1.5388 H       1  UNL1        0.0618
     39 H          -4.5571   -1.0067   -0.9037 H       1  UNL1        0.0624
     40 H          -3.0491   -2.1592   -0.3697 H       1  UNL1        0.0647
     41 H           3.1990   -0.9997    1.0619 H       1  UNL1        0.0628
@<TRIPOS>BOND
     1     1     2   am
     2     2     3    2
     3     2     4    1
     4     4     5   ar
     5     4    27   ar
     6     5     6   ar
     7     6     7   ar
     8     7     8   ar
     9     8     9    1
    10     8    27   ar
    11     9    10    1
    12    10    11   ar
    13    10    25   ar
    14    11    12   ar
    15    12    13    1
    16    12    19   ar
    17    13    14   ar
    18    13    18   ar
    19    14    15   ar
    20    15    16   ar
    21    16    17   ar
    22    17    18   ar
    23    19    20   ar
    24    20    21    1
    25    20    25   ar
    26    21    22    1
    27    21    23    1
    28    21    24    1
    29    25    26    2
    30     1    28    1
    31     1    29    1
    32     5    30    1
    33     6    31    1
    34     7    32    1
    35     9    33    1
    36     9    34    1
    37    14    35    1
    38    15    36    1
    39    16    37    1
    40    17    38    1
    41    18    39    1
    42    19    40    1
    43    27    41    1
@<TRIPOS>MOLECULE
../data/bude_mols_rdkit_confs2/molecule_8.pdb
 41 43 0 0 0
SMALL
GASTEIGER

@<TRIPOS>ATOM
      1  N1         6.2300   -0.3750   -1.2650 N.am    1  UNL1       -0.3253
      2  C1         5.2660    0.2450   -0.4030 C.2     1  UNL1        0.2415
      3  O1         5.3950    1.3900    0.0460 O.2     1  UNL1       -0.2704
      4  C2         4.0770   -0.5300   -0.0500 C.ar    1  UNL1        0.0368
      5  C3         3.8980   -1.8140   -0.5330 C.ar    1  UNL1       -0.0496
      6  C4         2.7820   -2.5080   -0.1850 C.ar    1  UNL1       -0.0607
      7  C5         1.8470   -1.9290    0.6400 C.ar    1  UNL1       -0.0568
      8  C6         2.0200   -0.6520    1.1240 C.ar    1  UNL1       -0.0253
      9  C7         0.9900   -0.0600    2.0170 C.3     1  UNL1        0.0703
     10  N2        -0.0840    0.5950    1.2700 N.ar    1  UNL1       -0.2241
     11  N3        -1.1550   -0.0460    0.8780 N.ar    1  UNL1       -0.1679
     12  C8        -2.1840    0.4540    0.1940 C.ar    1  UNL1        0.0921
     13  C9        -3.3370   -0.3530   -0.1970 C.ar    1  UNL1        0.0021
     14  C10       -4.4160    0.1200   -0.9000 C.ar    1  UNL1       -0.0525
     15  C11       -5.4880   -0.7170   -1.2390 C.ar    1  UNL1       -0.0611
     16  C12       -5.4730   -2.0270   -0.8700 C.ar    1  UNL1       -0.0617
     17  C13       -4.3990   -2.5290   -0.1620 C.ar    1  UNL1       -0.0611
     18  C14       -3.3420   -1.6830    0.1670 C.ar    1  UNL1       -0.0525
     19  C15       -2.1090    1.8040   -0.1380 C.ar    1  UNL1       -0.0171
     20  C16       -0.9980    2.5400    0.2500 C.ar    1  UNL1        0.1225
     21  C17       -0.9160    3.9720   -0.1010 C.3     1  UNL1        0.4225
     22  F1        -2.0050    4.4100   -0.8000 F       1  UNL1       -0.1657
     23  F2         0.2030    4.2300   -0.8640 F       1  UNL1       -0.1657
     24  F3        -0.7440    4.6740    1.0920 F       1  UNL1       -0.1657
     25  C18       -0.0030    1.9010    0.9540 C.ar    1  UNL1        0.2793
     26  O2         1.0170    2.5730    1.3120 O.2     1  UNL1       -0.2656
     27  C19        3.1410    0.0420    0.7730 C.ar    1  UNL1       -0.0447
     28 H           7.0437    0.1140   -1.5257 H       1  UNL1        0.1453
     29 H           6.0780   -1.2896   -1.5961 H       1  UNL1        0.1453
     30 H           4.6050   -2.2410   -1.1517 H       1  UNL1        0.0625
     31 H           2.6371   -3.4665   -0.5390 H       1  UNL1        0.0618
     32 H           1.0016   -2.4604    0.9007 H       1  UNL1        0.0621
     33 H           1.4590    0.6635    2.6506 H       1  UNL1        0.0560
     34 H           0.5548   -0.8549    2.5859 H       1  UNL1        0.0560
     35 H          -4.4388    1.1116   -1.1848 H       1  UNL1        0.0624
     36 H          -6.2892   -0.3397   -1.7688 H       1  UNL1        0.0618
     37 H          -6.2623   -2.6436   -1.1187 H       1  UNL1        0.0618
     38 H          -4.3794   -3.5213    0.1207 H       1  UNL1        0.0618
     39 H          -2.5417   -2.0618    0.6971 H       1  UNL1        0.0624
     40 H          -2.8723    2.2533   -0.6676 H       1  UNL1        0.0647
     41 H           3.2850    1.0003    1.1279 H       1  UNL1        0.0628
@<TRIPOS>BOND
     1     1     2   am
     2     2     3    2
     3     2     4    1
     4     4     5   ar
     5     4    27   ar
     6     5     6   ar
     7     6     7   ar
     8     7     8   ar
     9     8     9    1
    10     8    27   ar
    11     9    10    1
    12    10    11   ar
    13    10    25   ar
    14    11    12   ar
    15    12    13    1
    16    12    19   ar
    17    13    14   ar
    18    13    18   ar
    19    14    15   ar
    20    15    16   ar
    21    16    17   ar
    22    17    18   ar
    23    19    20   ar
    24    20    21    1
    25    20    25   ar
    26    21    22    1
    27    21    23    1
    28    21    24    1
    29    25    26    2
    30     1    28    1
    31     1    29    1
    32     5    30    1
    33     6    31    1
    34     7    32    1
    35     9    33    1
    36     9    34    1
    37    14    35    1
    38    15    36    1
    39    16    37    1
    40    17    38    1
    41    18    39    1
    42    19    40    1
    43    27    41    1
@<TRIPOS>MOLECULE
../data/bude_mols_rdkit_confs2/molecule_8.pdb
 41 43 0 0 0
SMALL
GASTEIGER

@<TRIPOS>ATOM
      1  N1         3.4760   -2.8450    0.9760 N.am    1  UNL1       -0.3253
      2  C1         4.1220   -1.6910    1.5000 C.2     1  UNL1        0.2415
      3  O1         4.9800   -1.7290    2.3980 O.2     1  UNL1       -0.2704
      4  C2         3.7350   -0.3950    0.9320 C.ar    1  UNL1        0.0368
      5  C3         4.3230    0.7730    1.3940 C.ar    1  UNL1       -0.0496
      6  C4         3.9650    1.9940    0.8650 C.ar    1  UNL1       -0.0607
      7  C5         3.0130    2.0800   -0.1350 C.ar    1  UNL1       -0.0568
      8  C6         2.4170    0.9330   -0.6090 C.ar    1  UNL1       -0.0253
      9  C7         1.4070    0.9740   -1.6640 C.3     1  UNL1        0.0703
     10  N2         0.0380    1.0870   -1.1560 N.ar    1  UNL1       -0.2241
     11  N3        -0.6890    0.0260   -0.8780 N.ar    1  UNL1       -0.1679
     12  C8        -1.9460    0.0450   -0.4100 C.ar    1  UNL1        0.0921
     13  C9        -2.6280   -1.2040   -0.1480 C.ar    1  UNL1        0.0021
     14  C10       -2.0260   -2.4190   -0.3630 C.ar    1  UNL1       -0.0525
     15  C11       -2.6520   -3.6220   -0.1220 C.ar    1  UNL1       -0.0611
     16  C12       -3.9420   -3.6300    0.3590 C.ar    1  UNL1       -0.0617
     17  C13       -4.5870   -2.4120    0.5900 C.ar    1  UNL1       -0.0611
     18  C14       -3.9100   -1.2130    0.3300 C.ar    1  UNL1       -0.0525
     19  C15       -2.5300    1.2670   -0.2020 C.ar    1  UNL1       -0.0171
     20  C16       -1.8040    2.4020   -0.4800 C.ar    1  UNL1        0.1225
     21  C17       -2.3820    3.7600   -0.2740 C.3     1  UNL1        0.4225
     22  F1        -3.6590    3.7110    0.2020 F       1  UNL1       -0.1657
     23  F2        -1.5240    4.4810    0.5160 F       1  UNL1       -0.1657
     24  F3        -2.4310    4.4130   -1.5110 F       1  UNL1       -0.1657
     25  C18       -0.5130    2.2970   -0.9600 C.ar    1  UNL1        0.2793
     26  O2         0.1170    3.3600   -1.2020 O.2     1  UNL1       -0.2656
     27  C19        2.7920   -0.2770   -0.0640 C.ar    1  UNL1       -0.0447
     28 H           3.7024   -3.7372    1.3254 H       1  UNL1        0.1453
     29 H           2.8026   -2.7515    0.2640 H       1  UNL1        0.1453
     30 H           5.0345    0.7273    2.1401 H       1  UNL1        0.0625
     31 H           4.4122    2.8541    1.2189 H       1  UNL1        0.0618
     32 H           2.7509    2.9993   -0.5238 H       1  UNL1        0.0621
     33 H           1.4817    0.0753   -2.2399 H       1  UNL1        0.0560
     34 H           1.5989    1.8481   -2.2506 H       1  UNL1        0.0560
     35 H          -1.0586   -2.4316   -0.7222 H       1  UNL1        0.0624
     36 H          -2.1580   -4.5103   -0.3006 H       1  UNL1        0.0618
     37 H          -4.4255   -4.5223    0.5462 H       1  UNL1        0.0618
     38 H          -5.5543   -2.3957    0.9493 H       1  UNL1        0.0618
     39 H          -4.3896   -0.3157    0.5031 H       1  UNL1        0.0624
     40 H          -3.4955    1.3346    0.1562 H       1  UNL1        0.0647
     41 H           2.3440   -1.1358   -0.4201 H       1  UNL1        0.0628
@<TRIPOS>BOND
     1     1     2   am
     2     2     3    2
     3     2     4    1
     4     4     5   ar
     5     4    27   ar
     6     5     6   ar
     7     6     7   ar
     8     7     8   ar
     9     8     9    1
    10     8    27   ar
    11     9    10    1
    12    10    11   ar
    13    10    25   ar
    14    11    12   ar
    15    12    13    1
    16    12    19   ar
    17    13    14   ar
    18    13    18   ar
    19    14    15   ar
    20    15    16   ar
    21    16    17   ar
    22    17    18   ar
    23    19    20   ar
    24    20    21    1
    25    20    25   ar
    26    21    22    1
    27    21    23    1
    28    21    24    1
    29    25    26    2
    30     1    28    1
    31     1    29    1
    32     5    30    1
    33     6    31    1
    34     7    32    1
    35     9    33    1
    36     9    34    1
    37    14    35    1
    38    15    36    1
    39    16    37    1
    40    17    38    1
    41    18    39    1
    42    19    40    1
    43    27    41    1
@<TRIPOS>MOLECULE
../data/bude_mols_rdkit_confs2/molecule_8.pdb
 41 43 0 0 0
SMALL
GASTEIGER

@<TRIPOS>ATOM
      1  N1         4.7520    2.9930    1.4320 N.am    1  UNL1       -0.3253
      2  C1         3.7200    2.5380    0.5720 C.2     1  UNL1        0.2415
      3  O1         2.9670    3.3230   -0.0560 O.2     1  UNL1       -0.2704
      4  C2         3.5400    1.1000    0.4220 C.ar    1  UNL1        0.0368
      5  C3         4.3410    0.1940    1.0880 C.ar    1  UNL1       -0.0496
      6  C4         4.1240   -1.1410    0.9070 C.ar    1  UNL1       -0.0607
      7  C5         3.1160   -1.6310    0.0690 C.ar    1  UNL1       -0.0568
      8  C6         2.3100   -0.7350   -0.6010 C.ar    1  UNL1       -0.0253
      9  C7         1.2170   -1.1750   -1.5100 C.3     1  UNL1        0.0703
     10  N2        -0.0450   -1.3340   -0.8350 N.ar    1  UNL1       -0.2241
     11  N3        -0.8980   -0.3590   -0.7210 N.ar    1  UNL1       -0.1679
     12  C8        -2.0920   -0.4060   -0.1140 C.ar    1  UNL1        0.0921
     13  C9        -2.9370    0.7970   -0.0760 C.ar    1  UNL1        0.0021
     14  C10       -4.1580    0.8340    0.5170 C.ar    1  UNL1       -0.0525
     15  C11       -4.8880    2.0270    0.5010 C.ar    1  UNL1       -0.0611
     16  C12       -4.4040    3.1530   -0.0960 C.ar    1  UNL1       -0.0617
     17  C13       -3.1550    3.1300   -0.7080 C.ar    1  UNL1       -0.0611
     18  C14       -2.4710    1.9530   -0.6730 C.ar    1  UNL1       -0.0525
     19  C15       -2.4830   -1.5860    0.4540 C.ar    1  UNL1       -0.0171
     20  C16       -1.6030   -2.6610    0.3590 C.ar    1  UNL1        0.1225
     21  C17       -1.9670   -3.9720    0.9540 C.3     1  UNL1        0.4225
     22  F1        -3.2080   -3.9170    1.5520 F       1  UNL1       -0.1657
     23  F2        -2.0240   -4.9430   -0.0260 F       1  UNL1       -0.1657
     24  F3        -0.9820   -4.3000    1.8660 F       1  UNL1       -0.1657
     25  C18       -0.3910   -2.5230   -0.2860 C.ar    1  UNL1        0.2793
     26  O2         0.3590   -3.5300   -0.3390 O.2     1  UNL1       -0.2656
     27  C19        2.5420    0.6100   -0.4090 C.ar    1  UNL1       -0.0447
     28 H           4.9000    3.9585    1.5554 H       1  UNL1        0.1453
     29 H           5.3203    2.3434    1.9056 H       1  UNL1        0.1453
     30 H           5.0932    0.5218    1.7139 H       1  UNL1        0.0625
     31 H           4.7256   -1.8143    1.4067 H       1  UNL1        0.0618
     32 H           2.9780   -2.6473   -0.0458 H       1  UNL1        0.0621
     33 H           1.4919   -2.1132   -1.9449 H       1  UNL1        0.0560
     34 H           1.0904   -0.4136   -2.2511 H       1  UNL1        0.0560
     35 H          -4.5426   -0.0077    0.9738 H       1  UNL1        0.0624
     36 H          -5.8157    2.0555    0.9522 H       1  UNL1        0.0618
     37 H          -4.9630    4.0205   -0.0939 H       1  UNL1        0.0618
     38 H          -2.7643    3.9672   -1.1679 H       1  UNL1        0.0618
     39 H          -1.5425    1.9222   -1.1224 H       1  UNL1        0.0624
     40 H          -3.3925   -1.6765    0.9333 H       1  UNL1        0.0647
     41 H           1.9437    1.2867   -0.9081 H       1  UNL1        0.0628
@<TRIPOS>BOND
     1     1     2   am
     2     2     3    2
     3     2     4    1
     4     4     5   ar
     5     4    27   ar
     6     5     6   ar
     7     6     7   ar
     8     7     8   ar
     9     8     9    1
    10     8    27   ar
    11     9    10    1
    12    10    11   ar
    13    10    25   ar
    14    11    12   ar
    15    12    13    1
    16    12    19   ar
    17    13    14   ar
    18    13    18   ar
    19    14    15   ar
    20    15    16   ar
    21    16    17   ar
    22    17    18   ar
    23    19    20   ar
    24    20    21    1
    25    20    25   ar
    26    21    22    1
    27    21    23    1
    28    21    24    1
    29    25    26    2
    30     1    28    1
    31     1    29    1
    32     5    30    1
    33     6    31    1
    34     7    32    1
    35     9    33    1
    36     9    34    1
    37    14    35    1
    38    15    36    1
    39    16    37    1
    40    17    38    1
    41    18    39    1
    42    19    40    1
    43    27    41    1
@<TRIPOS>MOLECULE
../data/bude_mols_rdkit_confs2/molecule_8.pdb
 41 43 0 0 0
SMALL
GASTEIGER

@<TRIPOS>ATOM
      1  N1         5.5900    0.9540    0.4630 N.am    1  UNL1       -0.3253
      2  C1         5.2040   -0.2280    1.1370 C.2     1  UNL1        0.2415
      3  O1         5.8860   -0.7000    2.0800 O.2     1  UNL1       -0.2704
      4  C2         3.9830   -0.9460    0.7500 C.ar    1  UNL1        0.0368
      5  C3         3.5860   -2.0950    1.3870 C.ar    1  UNL1       -0.0496
      6  C4         2.4460   -2.7750    1.0340 C.ar    1  UNL1       -0.0607
      7  C5         1.6870   -2.2660   -0.0010 C.ar    1  UNL1       -0.0568
      8  C6         2.0450   -1.1120   -0.6730 C.ar    1  UNL1       -0.0253
      9  C7         1.1740   -0.6450   -1.7690 C.3     1  UNL1        0.0703
     10  N2         0.1220    0.1970   -1.2430 N.ar    1  UNL1       -0.2241
     11  N3        -1.0220   -0.3430   -0.8490 N.ar    1  UNL1       -0.1679
     12  C8        -2.0530    0.3930   -0.3410 C.ar    1  UNL1        0.0921
     13  C9        -3.2860   -0.2670    0.0750 C.ar    1  UNL1        0.0021
     14  C10       -4.3540    0.4230    0.5920 C.ar    1  UNL1       -0.0525
     15  C11       -5.5140   -0.2650    0.9750 C.ar    1  UNL1       -0.0611
     16  C12       -5.6340   -1.6320    0.8520 C.ar    1  UNL1       -0.0617
     17  C13       -4.5630   -2.3290    0.3330 C.ar    1  UNL1       -0.0611
     18  C14       -3.4240   -1.6490   -0.0420 C.ar    1  UNL1       -0.0525
     19  C15       -1.8570    1.7480   -0.2500 C.ar    1  UNL1       -0.0171
     20  C16       -0.6600    2.3530   -0.6580 C.ar    1  UNL1        0.1225
     21  C17       -0.4820    3.8240   -0.5460 C.3     1  UNL1        0.4225
     22  F1        -0.2510    4.2880   -1.8410 F       1  UNL1       -0.1657
     23  F2         0.5690    4.1410    0.2590 F       1  UNL1       -0.1657
     24  F3        -1.6720    4.3800   -0.1350 F       1  UNL1       -0.1657
     25  C18        0.3230    1.5230   -1.1580 C.ar    1  UNL1        0.2793
     26  O2         1.4160    2.0200   -1.5380 O.2     1  UNL1       -0.2656
     27  C19        3.1930   -0.4740   -0.2800 C.ar    1  UNL1       -0.0447
     28 H           6.4106    1.4276    0.7305 H       1  UNL1        0.1453
     29 H           5.0381    1.3032   -0.2737 H       1  UNL1        0.1453
     30 H           4.1648   -2.4612    2.1589 H       1  UNL1        0.0625
     31 H           2.1660   -3.6378    1.5261 H       1  UNL1        0.0618
     32 H           0.8265   -2.7619   -0.2814 H       1  UNL1        0.0621
     33 H           0.7387   -1.4903   -2.2599 H       1  UNL1        0.0560
     34 H           1.7589   -0.0812   -2.4653 H       1  UNL1        0.0560
     35 H          -4.3031    1.4482    0.6988 H       1  UNL1        0.0624
     36 H          -6.3058    0.2714    1.3627 H       1  UNL1        0.0618
     37 H          -6.4975   -2.1188    1.1390 H       1  UNL1        0.0618
     38 H          -4.6140   -3.3542    0.2260 H       1  UNL1        0.0618
     39 H          -2.6346   -2.1899   -0.4284 H       1  UNL1        0.0624
     40 H          -2.6129    2.3391    0.1299 H       1  UNL1        0.0647
     41 H           3.4767    0.3885   -0.7706 H       1  UNL1        0.0628
@<TRIPOS>BOND
     1     1     2   am
     2     2     3    2
     3     2     4    1
     4     4     5   ar
     5     4    27   ar
     6     5     6   ar
     7     6     7   ar
     8     7     8   ar
     9     8     9    1
    10     8    27   ar
    11     9    10    1
    12    10    11   ar
    13    10    25   ar
    14    11    12   ar
    15    12    13    1
    16    12    19   ar
    17    13    14   ar
    18    13    18   ar
    19    14    15   ar
    20    15    16   ar
    21    16    17   ar
    22    17    18   ar
    23    19    20   ar
    24    20    21    1
    25    20    25   ar
    26    21    22    1
    27    21    23    1
    28    21    24    1
    29    25    26    2
    30     1    28    1
    31     1    29    1
    32     5    30    1
    33     6    31    1
    34     7    32    1
    35     9    33    1
    36     9    34    1
    37    14    35    1
    38    15    36    1
    39    16    37    1
    40    17    38    1
    41    18    39    1
    42    19    40    1
    43    27    41    1
@<TRIPOS>MOLECULE
../data/bude_mols_rdkit_confs2/molecule_8.pdb
 41 43 0 0 0
SMALL
GASTEIGER

@<TRIPOS>ATOM
      1  N1         3.1060    3.0160    1.2430 N.am    1  UNL1       -0.3253
      2  C1         3.7890    1.8940    1.7850 C.2     1  UNL1        0.2415
      3  O1         4.5420    2.0540    2.7610 O.2     1  UNL1       -0.2704
      4  C2         3.5730    0.5860    1.1630 C.ar    1  UNL1        0.0368
      5  C3         4.2110   -0.5320    1.6510 C.ar    1  UNL1       -0.0496
      6  C4         4.0260   -1.7660    1.0870 C.ar    1  UNL1       -0.0607
      7  C5         3.1670   -1.8720   -0.0070 C.ar    1  UNL1       -0.0568
      8  C6         2.5120   -0.7810   -0.5230 C.ar    1  UNL1       -0.0253
      9  C7         1.5890   -0.8310   -1.6780 C.3     1  UNL1        0.0703
     10  N2         0.1980   -1.0420   -1.2820 N.ar    1  UNL1       -0.2241
     11  N3        -0.5890   -0.0110   -1.0200 N.ar    1  UNL1       -0.1679
     12  C8        -1.8820   -0.1370   -0.6480 C.ar    1  UNL1        0.0921
     13  C9        -2.6910    1.0610   -0.3740 C.ar    1  UNL1        0.0021
     14  C10       -2.1370    2.3230   -0.4950 C.ar    1  UNL1       -0.0525
     15  C11       -2.8900    3.4290   -0.2410 C.ar    1  UNL1       -0.0611
     16  C12       -4.2110    3.3460    0.1410 C.ar    1  UNL1       -0.0617
     17  C13       -4.7770    2.0990    0.2660 C.ar    1  UNL1       -0.0611
     18  C14       -4.0090    0.9770    0.0070 C.ar    1  UNL1       -0.0525
     19  C15       -2.3620   -1.4180   -0.5490 C.ar    1  UNL1       -0.0171
     20  C16       -1.5410   -2.5160   -0.8230 C.ar    1  UNL1        0.1225
     21  C17       -2.0540   -3.9070   -0.7190 C.3     1  UNL1        0.4225
     22  F1        -3.3590   -3.8490   -0.3370 F       1  UNL1       -0.1657
     23  F2        -2.0010   -4.4490   -1.9890 F       1  UNL1       -0.1657
     24  F3        -1.2620   -4.6240    0.1580 F       1  UNL1       -0.1657
     25  C18       -0.2320   -2.3120   -1.1980 C.ar    1  UNL1        0.2793
     26  O2         0.5390   -3.3000   -1.4540 O.2     1  UNL1       -0.2656
     27  C19        2.7230    0.4430    0.0710 C.ar    1  UNL1       -0.0447
     28 H           3.2317    3.9079    1.6404 H       1  UNL1        0.1453
     29 H           2.5071    2.9015    0.4701 H       1  UNL1        0.1453
     30 H           4.8436   -0.4379    2.4609 H       1  UNL1        0.0625
     31 H           4.5100   -2.5968    1.4619 H       1  UNL1        0.0618
     32 H           3.0196   -2.7967   -0.4409 H       1  UNL1        0.0621
     33 H           1.8874   -1.6336   -2.3197 H       1  UNL1        0.0560
     34 H           1.6428    0.1151   -2.1749 H       1  UNL1        0.0560
     35 H          -1.1502    2.4266   -0.7786 H       1  UNL1        0.0624
     36 H          -2.4565    4.3605   -0.3379 H       1  UNL1        0.0618
     37 H          -4.7619    4.1982    0.3286 H       1  UNL1        0.0618
     38 H          -5.7643    2.0007    0.5500 H       1  UNL1        0.0618
     39 H          -4.4410    0.0448    0.1033 H       1  UNL1        0.0624
     40 H          -3.3428   -1.5736   -0.2683 H       1  UNL1        0.0647
     41 H           2.2390    1.2743   -0.3028 H       1  UNL1        0.0628
@<TRIPOS>BOND
     1     1     2   am
     2     2     3    2
     3     2     4    1
     4     4     5   ar
     5     4    27   ar
     6     5     6   ar
     7     6     7   ar
     8     7     8   ar
     9     8     9    1
    10     8    27   ar
    11     9    10    1
    12    10    11   ar
    13    10    25   ar
    14    11    12   ar
    15    12    13    1
    16    12    19   ar
    17    13    14   ar
    18    13    18   ar
    19    14    15   ar
    20    15    16   ar
    21    16    17   ar
    22    17    18   ar
    23    19    20   ar
    24    20    21    1
    25    20    25   ar
    26    21    22    1
    27    21    23    1
    28    21    24    1
    29    25    26    2
    30     1    28    1
    31     1    29    1
    32     5    30    1
    33     6    31    1
    34     7    32    1
    35     9    33    1
    36     9    34    1
    37    14    35    1
    38    15    36    1
    39    16    37    1
    40    17    38    1
    41    18    39    1
    42    19    40    1
    43    27    41    1
@<TRIPOS>MOLECULE
../data/bude_mols_rdkit_confs2/molecule_8.pdb
 41 43 0 0 0
SMALL
GASTEIGER

@<TRIPOS>ATOM
      1  N1        -5.5230   -1.2570   -0.9090 N.am    1  UNL1       -0.3253
      2  C1        -5.1400   -0.0750   -1.5830 C.2     1  UNL1        0.2415
      3  O1        -5.7870    0.3300   -2.5690 O.2     1  UNL1       -0.2704
      4  C2        -3.9890    0.6750   -1.1300 C.ar    1  UNL1        0.0368
      5  C3        -3.6160    1.8270   -1.7870 C.ar    1  UNL1       -0.0496
      6  C4        -2.5270    2.5670   -1.3840 C.ar    1  UNL1       -0.0607
      7  C5        -1.7990    2.1270   -0.2880 C.ar    1  UNL1       -0.0568
      8  C6        -2.1370    0.9800    0.3990 C.ar    1  UNL1       -0.0253
      9  C7        -1.3360    0.5670    1.5430 C.3     1  UNL1        0.0703
     10  N2        -0.2220   -0.3100    1.1900 N.ar    1  UNL1       -0.2241
     11  N3         0.9170    0.2960    0.9020 N.ar    1  UNL1       -0.1679
     12  C8         2.0430   -0.3410    0.5570 C.ar    1  UNL1        0.0921
     13  C9         3.2830    0.3450    0.2450 C.ar    1  UNL1        0.0021
     14  C10        3.2570    1.7330    0.3200 C.ar    1  UNL1       -0.0525
     15  C11        4.3670    2.5020    0.0480 C.ar    1  UNL1       -0.0611
     16  C12        5.5210    1.8600   -0.3050 C.ar    1  UNL1       -0.0617
     17  C13        5.5650    0.4890   -0.3840 C.ar    1  UNL1       -0.0611
     18  C14        4.4440   -0.2980   -0.1100 C.ar    1  UNL1       -0.0525
     19  C15        2.0020   -1.7110    0.5010 C.ar    1  UNL1       -0.0171
     20  C16        0.8030   -2.3680    0.8040 C.ar    1  UNL1        0.1225
     21  C17        0.7460   -3.8350    0.7480 C.3     1  UNL1        0.4225
     22  F1        -0.2090   -4.2300   -0.1880 F       1  UNL1       -0.1657
     23  F2         0.5140   -4.3970    1.9720 F       1  UNL1       -0.1657
     24  F3         1.9540   -4.3440    0.2820 F       1  UNL1       -0.1657
     25  C18       -0.3050   -1.6370    1.1480 C.ar    1  UNL1        0.2793
     26  O2        -1.4130   -2.1650    1.4320 O.2     1  UNL1       -0.2656
     27  C19       -3.2320    0.2650   -0.0310 C.ar    1  UNL1       -0.0447
     28 H          -6.3063   -1.7676   -1.2172 H       1  UNL1        0.1453
     29 H          -5.0064   -1.5697   -0.1314 H       1  UNL1        0.1453
     30 H          -4.1661    2.1430   -2.6010 H       1  UNL1        0.0625
     31 H          -2.2587    3.4283   -1.8852 H       1  UNL1        0.0618
     32 H          -0.9807    2.6740    0.0222 H       1  UNL1        0.0621
     33 H          -1.9705    0.0480    2.2307 H       1  UNL1        0.0560
     34 H          -0.9150    1.4540    1.9683 H       1  UNL1        0.0560
     35 H           2.3778    2.2023    0.5881 H       1  UNL1        0.0624
     36 H           4.3285    3.5315    0.1089 H       1  UNL1        0.0618
     37 H           6.3682    2.4109   -0.5144 H       1  UNL1        0.0618
     38 H           6.4489    0.0289   -0.6526 H       1  UNL1        0.0618
     39 H           4.4865   -1.3273   -0.1721 H       1  UNL1        0.0624
     40 H           2.8425   -2.2497    0.2394 H       1  UNL1        0.0647
     41 H          -3.5000   -0.5956    0.4716 H       1  UNL1        0.0628
@<TRIPOS>BOND
     1     1     2   am
     2     2     3    2
     3     2     4    1
     4     4     5   ar
     5     4    27   ar
     6     5     6   ar
     7     6     7   ar
     8     7     8   ar
     9     8     9    1
    10     8    27   ar
    11     9    10    1
    12    10    11   ar
    13    10    25   ar
    14    11    12   ar
    15    12    13    1
    16    12    19   ar
    17    13    14   ar
    18    13    18   ar
    19    14    15   ar
    20    15    16   ar
    21    16    17   ar
    22    17    18   ar
    23    19    20   ar
    24    20    21    1
    25    20    25   ar
    26    21    22    1
    27    21    23    1
    28    21    24    1
    29    25    26    2
    30     1    28    1
    31     1    29    1
    32     5    30    1
    33     6    31    1
    34     7    32    1
    35     9    33    1
    36     9    34    1
    37    14    35    1
    38    15    36    1
    39    16    37    1
    40    17    38    1
    41    18    39    1
    42    19    40    1
    43    27    41    1
