@<TRIPOS>MOLECULE
../data/bude_mols_rdkit_confs2/molecule_70.pdb
 46 49 0 0 0
SMALL
GASTEIGER

@<TRIPOS>ATOM
      1  O1         3.4140   -1.8300   -0.0550 O.2     1  UNL1       -0.2418
      2  C1         3.6540   -0.6650    0.3490 C.2     1  UNL1        0.3328
      3  N1         2.7480    0.3460   -0.0410 N.am    1  UNL1       -0.1668
      4  C2         1.6000    0.0770   -0.8610 C.2     1  UNL1        0.3148
      5  C3         1.3810    0.6340   -2.0390 C.2     1  UNL1        0.0147
      6  C4         0.1050    0.1090   -2.5710 C.3     1  UNL1        0.0359
      7  C5        -0.3510   -0.8190   -1.5270 C.2     1  UNL1        0.1407
      8  C6        -1.6050   -1.6480   -1.5410 C.3     1  UNL1        0.0541
      9  C7        -2.7730   -0.7470   -1.6270 C.ar    1  UNL1        0.0726
     10  N2        -3.4830   -0.5570   -2.7630 N.ar    1  UNL1       -0.1752
     11  N3        -4.5260    0.2540   -2.8180 N.ar    1  UNL1       -0.2427
     12  C8        -4.9590    0.9480   -1.7550 C.ar    1  UNL1        0.2682
     13  O2        -5.9710    1.7250   -1.8400 O.2     1  UNL1       -0.2661
     14  C9        -4.2850    0.8030   -0.5660 C.ar    1  UNL1        0.0232
     15  C10       -3.1840   -0.0590   -0.5260 C.ar    1  UNL1       -0.0157
     16  C11       -2.5130   -0.1690    0.7920 C.3     1  UNL1       -0.0255
     17  C12       -3.6590   -0.3890    1.7910 C.3     1  UNL1       -0.0487
     18  C13       -4.5230    0.8340    1.9210 C.3     1  UNL1       -0.0486
     19  C14       -4.7220    1.5530    0.6300 C.3     1  UNL1       -0.0222
     20  N4         0.5210   -0.8040   -0.5830 N.2     1  UNL1       -0.0504
     21  C15        4.8310   -0.4410    1.1780 C.ar    1  UNL1        0.0616
     22  C16        5.1890    0.8110    1.6050 C.ar    1  UNL1       -0.0474
     23  C17        6.3100    0.9700    2.3880 C.ar    1  UNL1       -0.0610
     24  C18        7.0980   -0.0960    2.7640 C.ar    1  UNL1       -0.0617
     25  C19        6.7490   -1.3770    2.3380 C.ar    1  UNL1       -0.0610
     26  C20        5.6280   -1.4980    1.5610 C.ar    1  UNL1       -0.0474
     27 H           2.9094    1.2692    0.2604 H       1  UNL1        0.3016
     28 H           1.9952    1.3182   -2.5076 H       1  UNL1        0.0657
     29 H           0.2599   -0.4044   -3.4969 H       1  UNL1        0.0392
     30 H          -0.6063    0.8805   -2.7800 H       1  UNL1        0.0392
     31 H          -1.6631   -2.2268   -0.6429 H       1  UNL1        0.0411
     32 H          -1.5937   -2.3085   -2.3827 H       1  UNL1        0.0411
     33 H          -5.0037    0.3523   -3.6732 H       1  UNL1        0.1921
     34 H          -1.9794    0.7298    1.0207 H       1  UNL1        0.0314
     35 H          -1.7941   -0.9611    0.8173 H       1  UNL1        0.0314
     36 H          -3.2442   -0.6243    2.7488 H       1  UNL1        0.0268
     37 H          -4.2677   -1.1916    1.4302 H       1  UNL1        0.0268
     38 H          -4.0613    1.5041    2.6157 H       1  UNL1        0.0269
     39 H          -5.4860    0.5087    2.2553 H       1  UNL1        0.0269
     40 H          -5.7647    1.7692    0.5257 H       1  UNL1        0.0315
     41 H          -4.1135    2.4319    0.6757 H       1  UNL1        0.0315
     42 H           4.6208    1.6309    1.3408 H       1  UNL1        0.0626
     43 H           6.5685    1.9180    2.7035 H       1  UNL1        0.0618
     44 H           7.9334    0.0514    3.3517 H       1  UNL1        0.0618
     45 H           7.3131   -2.2011    2.5980 H       1  UNL1        0.0618
     46 H           5.3626   -2.4426    1.2413 H       1  UNL1        0.0626
@<TRIPOS>BOND
     1     1     2    2
     2     2     3   am
     3     2    21    1
     4     3     4    1
     5     4     5    2
     6     4    20    1
     7     5     6    1
     8     6     7    1
     9     7     8    1
    10     7    20    2
    11     8     9    1
    12     9    10   ar
    13     9    15   ar
    14    10    11   ar
    15    11    12   ar
    16    12    13    2
    17    12    14   ar
    18    14    15   ar
    19    14    19    1
    20    15    16    1
    21    16    17    1
    22    17    18    1
    23    18    19    1
    24    21    22   ar
    25    21    26   ar
    26    22    23   ar
    27    23    24   ar
    28    24    25   ar
    29    25    26   ar
    30     3    27    1
    31     5    28    1
    32     6    29    1
    33     6    30    1
    34     8    31    1
    35     8    32    1
    36    11    33    1
    37    16    34    1
    38    16    35    1
    39    17    36    1
    40    17    37    1
    41    18    38    1
    42    18    39    1
    43    19    40    1
    44    19    41    1
    45    22    42    1
    46    23    43    1
    47    24    44    1
    48    25    45    1
    49    26    46    1
@<TRIPOS>MOLECULE
../data/bude_mols_rdkit_confs2/molecule_70.pdb
 46 49 0 0 0
SMALL
GASTEIGER

@<TRIPOS>ATOM
      1  O1         3.1360    0.8370   -0.8680 O.2     1  UNL1       -0.2418
      2  C1         3.8060    0.2620    0.0290 C.2     1  UNL1        0.3328
      3  N1         3.0670   -0.3440    1.0770 N.am    1  UNL1       -0.1668
      4  C2         1.6350   -0.2800    1.0750 C.2     1  UNL1        0.3148
      5  C3         0.8910   -1.3680    1.0460 C.2     1  UNL1        0.0147
      6  C4        -0.5240   -0.9150    1.0540 C.3     1  UNL1        0.0359
      7  C5        -0.4360    0.5440    1.0910 C.2     1  UNL1        0.1407
      8  C6        -1.5940    1.4910    1.1120 C.3     1  UNL1        0.0541
      9  C7        -2.4000    1.2800   -0.1060 C.ar    1  UNL1        0.0726
     10  N2        -2.2150    2.0920   -1.2040 N.ar    1  UNL1       -0.1752
     11  N3        -2.8810    1.9380   -2.3260 N.ar    1  UNL1       -0.2427
     12  C8        -3.7840    0.9500   -2.4230 C.ar    1  UNL1        0.2682
     13  O2        -4.4320    0.7940   -3.5030 O.2     1  UNL1       -0.2661
     14  C9        -4.0310    0.0940   -1.3770 C.ar    1  UNL1        0.0232
     15  C10       -3.3080    0.2800   -0.1880 C.ar    1  UNL1       -0.0157
     16  C11       -3.6450   -0.6410    0.9110 C.3     1  UNL1       -0.0255
     17  C12       -5.1690   -0.5400    1.0480 C.3     1  UNL1       -0.0487
     18  C13       -5.8290   -1.0670   -0.1860 C.3     1  UNL1       -0.0486
     19  C14       -4.9970   -1.0200   -1.4110 C.3     1  UNL1       -0.0222
     20  N4         0.8170    0.8740    1.1020 N.2     1  UNL1       -0.0504
     21  C15        5.2720    0.2220   -0.0090 C.ar    1  UNL1        0.0616
     22  C16        6.0430   -0.3600    0.9620 C.ar    1  UNL1       -0.0474
     23  C17        7.4360   -0.3680    0.8690 C.ar    1  UNL1       -0.0610
     24  C18        8.0240    0.2220   -0.2180 C.ar    1  UNL1       -0.0617
     25  C19        7.2590    0.8200   -1.2180 C.ar    1  UNL1       -0.0610
     26  C20        5.8910    0.8090   -1.0950 C.ar    1  UNL1       -0.0474
     27 H           3.5378   -0.8088    1.8061 H       1  UNL1        0.3016
     28 H           1.2260   -2.3438    1.0224 H       1  UNL1        0.0657
     29 H          -1.0359   -1.2859    1.9173 H       1  UNL1        0.0392
     30 H          -1.0718   -1.2702    0.2062 H       1  UNL1        0.0392
     31 H          -1.2347    2.4986    1.1359 H       1  UNL1        0.0411
     32 H          -2.1933    1.3148    1.9807 H       1  UNL1        0.0411
     33 H          -2.7194    2.5409   -3.0873 H       1  UNL1        0.1921
     34 H          -3.1636   -0.3392    1.8176 H       1  UNL1        0.0314
     35 H          -3.3210   -1.6418    0.7151 H       1  UNL1        0.0314
     36 H          -5.4452    0.4842    1.1878 H       1  UNL1        0.0268
     37 H          -5.4853   -1.1191    1.8903 H       1  UNL1        0.0268
     38 H          -6.7121   -0.4892   -0.3624 H       1  UNL1        0.0269
     39 H          -6.0278   -2.1017    0.0004 H       1  UNL1        0.0269
     40 H          -4.4599   -1.9411   -1.5000 H       1  UNL1        0.0315
     41 H          -5.6468   -0.8702   -2.2478 H       1  UNL1        0.0315
     42 H           5.5865   -0.8001    1.7762 H       1  UNL1        0.0626
     43 H           8.0105   -0.8093    1.6040 H       1  UNL1        0.0618
     44 H           9.0529    0.2239   -0.2983 H       1  UNL1        0.0618
     45 H           7.7110    1.2618   -2.0338 H       1  UNL1        0.0618
     46 H           5.3140    1.2484   -1.8292 H       1  UNL1        0.0626
@<TRIPOS>BOND
     1     1     2    2
     2     2     3   am
     3     2    21    1
     4     3     4    1
     5     4     5    2
     6     4    20    1
     7     5     6    1
     8     6     7    1
     9     7     8    1
    10     7    20    2
    11     8     9    1
    12     9    10   ar
    13     9    15   ar
    14    10    11   ar
    15    11    12   ar
    16    12    13    2
    17    12    14   ar
    18    14    15   ar
    19    14    19    1
    20    15    16    1
    21    16    17    1
    22    17    18    1
    23    18    19    1
    24    21    22   ar
    25    21    26   ar
    26    22    23   ar
    27    23    24   ar
    28    24    25   ar
    29    25    26   ar
    30     3    27    1
    31     5    28    1
    32     6    29    1
    33     6    30    1
    34     8    31    1
    35     8    32    1
    36    11    33    1
    37    16    34    1
    38    16    35    1
    39    17    36    1
    40    17    37    1
    41    18    38    1
    42    18    39    1
    43    19    40    1
    44    19    41    1
    45    22    42    1
    46    23    43    1
    47    24    44    1
    48    25    45    1
    49    26    46    1
@<TRIPOS>MOLECULE
../data/bude_mols_rdkit_confs2/molecule_70.pdb
 46 49 0 0 0
SMALL
GASTEIGER

@<TRIPOS>ATOM
      1  O1         2.9980   -1.3040   -0.2020 O.2     1  UNL1       -0.2418
      2  C1         3.9050   -0.4020   -0.2110 C.2     1  UNL1        0.3328
      3  N1         3.4470    0.9030    0.0970 N.am    1  UNL1       -0.1668
      4  C2         2.0710    1.1930    0.3990 C.2     1  UNL1        0.3148
      5  C3         1.7010    1.7110    1.5560 C.2     1  UNL1        0.0147
      6  C4         0.2260    1.8720    1.5120 C.3     1  UNL1        0.0359
      7  C5        -0.1530    1.3740    0.1810 C.2     1  UNL1        0.1407
      8  C6        -1.5380    1.3190   -0.3660 C.3     1  UNL1        0.0541
      9  C7        -2.3520    0.4640    0.4790 C.ar    1  UNL1        0.0726
     10  N2        -1.8310   -0.1750    1.5300 N.ar    1  UNL1       -0.1752
     11  N3        -2.5030   -0.9630    2.3340 N.ar    1  UNL1       -0.2427
     12  C8        -3.8140   -1.1720    2.1220 C.ar    1  UNL1        0.2682
     13  O2        -4.4910   -1.9190    2.8690 O.2     1  UNL1       -0.2661
     14  C9        -4.4230   -0.5340    1.0400 C.ar    1  UNL1        0.0232
     15  C10       -3.6870    0.2900    0.2120 C.ar    1  UNL1       -0.0157
     16  C11       -4.3680    0.9370   -0.9080 C.3     1  UNL1       -0.0255
     17  C12       -5.2200   -0.0620   -1.6150 C.3     1  UNL1       -0.0487
     18  C13       -6.1210   -0.8450   -0.7270 C.3     1  UNL1       -0.0486
     19  C14       -5.8670   -0.7110    0.7370 C.3     1  UNL1       -0.0222
     20  N4         0.9440    1.0010   -0.4050 N.2     1  UNL1       -0.0504
     21  C15        5.2860   -0.7210   -0.5170 C.ar    1  UNL1        0.0616
     22  C16        6.2300    0.2760   -0.5140 C.ar    1  UNL1       -0.0474
     23  C17        7.5600   -0.0410   -0.8090 C.ar    1  UNL1       -0.0610
     24  C18        7.9480   -1.3350   -1.1050 C.ar    1  UNL1       -0.0617
     25  C19        7.0040   -2.3190   -1.1070 C.ar    1  UNL1       -0.0610
     26  C20        5.6740   -1.9990   -0.8110 C.ar    1  UNL1       -0.0474
     27 H           4.0976    1.6419    0.1046 H       1  UNL1        0.3016
     28 H           2.3211    1.9576    2.3432 H       1  UNL1        0.0657
     29 H          -0.0468    2.9006    1.6239 H       1  UNL1        0.0392
     30 H          -0.2671    1.3449    2.3019 H       1  UNL1        0.0392
     31 H          -1.5148    0.9225   -1.3595 H       1  UNL1        0.0411
     32 H          -1.9549    2.3042   -0.3880 H       1  UNL1        0.0411
     33 H          -2.0491   -1.4002    3.0904 H       1  UNL1        0.1921
     34 H          -3.6416    1.3311   -1.5877 H       1  UNL1        0.0314
     35 H          -4.9814    1.7332   -0.5409 H       1  UNL1        0.0314
     36 H          -4.5767   -0.7474   -2.1261 H       1  UNL1        0.0268
     37 H          -5.8523    0.4922   -2.2767 H       1  UNL1        0.0268
     38 H          -6.0188   -1.8785   -0.9846 H       1  UNL1        0.0269
     39 H          -7.1026   -0.4510   -0.8888 H       1  UNL1        0.0269
     40 H          -6.4032    0.1392    1.1038 H       1  UNL1        0.0315
     41 H          -6.1953   -1.6117    1.2122 H       1  UNL1        0.0315
     42 H           5.9613    1.2484   -0.2965 H       1  UNL1        0.0626
     43 H           8.2690    0.7089   -0.8057 H       1  UNL1        0.0618
     44 H           8.9337   -1.5519   -1.3204 H       1  UNL1        0.0618
     45 H           7.2683   -3.2924   -1.3252 H       1  UNL1        0.0618
     46 H           4.9655   -2.7493   -0.8147 H       1  UNL1        0.0626
@<TRIPOS>BOND
     1     1     2    2
     2     2     3   am
     3     2    21    1
     4     3     4    1
     5     4     5    2
     6     4    20    1
     7     5     6    1
     8     6     7    1
     9     7     8    1
    10     7    20    2
    11     8     9    1
    12     9    10   ar
    13     9    15   ar
    14    10    11   ar
    15    11    12   ar
    16    12    13    2
    17    12    14   ar
    18    14    15   ar
    19    14    19    1
    20    15    16    1
    21    16    17    1
    22    17    18    1
    23    18    19    1
    24    21    22   ar
    25    21    26   ar
    26    22    23   ar
    27    23    24   ar
    28    24    25   ar
    29    25    26   ar
    30     3    27    1
    31     5    28    1
    32     6    29    1
    33     6    30    1
    34     8    31    1
    35     8    32    1
    36    11    33    1
    37    16    34    1
    38    16    35    1
    39    17    36    1
    40    17    37    1
    41    18    38    1
    42    18    39    1
    43    19    40    1
    44    19    41    1
    45    22    42    1
    46    23    43    1
    47    24    44    1
    48    25    45    1
    49    26    46    1
@<TRIPOS>MOLECULE
../data/bude_mols_rdkit_confs2/molecule_70.pdb
 46 49 0 0 0
SMALL
GASTEIGER

@<TRIPOS>ATOM
      1  O1         3.7350    1.1550   -0.3890 O.2     1  UNL1       -0.2418
      2  C1         3.7290   -0.0920   -0.5610 C.2     1  UNL1        0.3328
      3  N1         2.5320   -0.6490   -1.0600 N.am    1  UNL1       -0.1668
      4  C2         1.3800    0.1230   -1.3580 C.2     1  UNL1        0.3148
      5  C3         0.8270    0.2090   -2.5500 C.2     1  UNL1        0.0147
      6  C4        -0.3560    1.1070   -2.4700 C.3     1  UNL1        0.0359
      7  C5        -0.3630    1.4980   -1.0420 C.2     1  UNL1        0.1407
      8  C6        -1.3540    2.3970   -0.4240 C.3     1  UNL1        0.0541
      9  C7        -2.7270    1.9200   -0.5130 C.ar    1  UNL1        0.0726
     10  N2        -3.5790    2.4900   -1.3900 N.ar    1  UNL1       -0.1752
     11  N3        -4.8390    2.0880   -1.5020 N.ar    1  UNL1       -0.2427
     12  C8        -5.3470    1.0960   -0.7570 C.ar    1  UNL1        0.2682
     13  O2        -6.5520    0.7710   -0.9220 O.2     1  UNL1       -0.2661
     14  C9        -4.5280    0.4670    0.1620 C.ar    1  UNL1        0.0232
     15  C10       -3.2050    0.8930    0.2760 C.ar    1  UNL1       -0.0157
     16  C11       -2.2630    0.2710    1.2230 C.3     1  UNL1       -0.0255
     17  C12       -3.0540   -0.3820    2.3350 C.3     1  UNL1       -0.0487
     18  C13       -4.1120   -1.3210    1.8210 C.3     1  UNL1       -0.0486
     19  C14       -5.1220   -0.6260    0.9640 C.3     1  UNL1       -0.0222
     20  N4         0.6290    0.9200   -0.4670 N.2     1  UNL1       -0.0504
     21  C15        4.9360   -0.8480   -0.2380 C.ar    1  UNL1        0.0616
     22  C16        4.9490   -2.2100   -0.2680 C.ar    1  UNL1       -0.0474
     23  C17        6.1060   -2.8900    0.0380 C.ar    1  UNL1       -0.0610
     24  C18        7.2550   -2.2000    0.3770 C.ar    1  UNL1       -0.0617
     25  C19        7.2320   -0.8230    0.4040 C.ar    1  UNL1       -0.0610
     26  C20        6.0860   -0.1640    0.1000 C.ar    1  UNL1       -0.0474
     27 H           2.4948   -1.6215   -1.2086 H       1  UNL1        0.3016
     28 H           1.1604   -0.2692   -3.4016 H       1  UNL1        0.0657
     29 H          -1.2540    0.5884   -2.7337 H       1  UNL1        0.0392
     30 H          -0.3069    1.9393   -3.1407 H       1  UNL1        0.0392
     31 H          -1.2962    3.3473   -0.9124 H       1  UNL1        0.0411
     32 H          -1.1135    2.4519    0.6172 H       1  UNL1        0.0411
     33 H          -5.4225    2.5352   -2.1568 H       1  UNL1        0.1921
     34 H          -1.6169    1.0194    1.6321 H       1  UNL1        0.0314
     35 H          -1.6694   -0.4624    0.7183 H       1  UNL1        0.0314
     36 H          -3.5275    0.3835    2.9135 H       1  UNL1        0.0268
     37 H          -2.3700   -0.9568    2.9238 H       1  UNL1        0.0268
     38 H          -4.6150   -1.7625    2.6559 H       1  UNL1        0.0269
     39 H          -3.6274   -2.0616    1.2196 H       1  UNL1        0.0269
     40 H          -5.5585   -1.3416    0.2989 H       1  UNL1        0.0315
     41 H          -5.8553   -0.1928    1.6117 H       1  UNL1        0.0315
     42 H           4.0940   -2.7303   -0.5194 H       1  UNL1        0.0626
     43 H           6.1158   -3.9217    0.0142 H       1  UNL1        0.0618
     44 H           8.1212   -2.7114    0.6075 H       1  UNL1        0.0618
     45 H           8.0827   -0.2951    0.6544 H       1  UNL1        0.0618
     46 H           6.0739    0.8677    0.1219 H       1  UNL1        0.0626
@<TRIPOS>BOND
     1     1     2    2
     2     2     3   am
     3     2    21    1
     4     3     4    1
     5     4     5    2
     6     4    20    1
     7     5     6    1
     8     6     7    1
     9     7     8    1
    10     7    20    2
    11     8     9    1
    12     9    10   ar
    13     9    15   ar
    14    10    11   ar
    15    11    12   ar
    16    12    13    2
    17    12    14   ar
    18    14    15   ar
    19    14    19    1
    20    15    16    1
    21    16    17    1
    22    17    18    1
    23    18    19    1
    24    21    22   ar
    25    21    26   ar
    26    22    23   ar
    27    23    24   ar
    28    24    25   ar
    29    25    26   ar
    30     3    27    1
    31     5    28    1
    32     6    29    1
    33     6    30    1
    34     8    31    1
    35     8    32    1
    36    11    33    1
    37    16    34    1
    38    16    35    1
    39    17    36    1
    40    17    37    1
    41    18    38    1
    42    18    39    1
    43    19    40    1
    44    19    41    1
    45    22    42    1
    46    23    43    1
    47    24    44    1
    48    25    45    1
    49    26    46    1
@<TRIPOS>MOLECULE
../data/bude_mols_rdkit_confs2/molecule_70.pdb
 46 49 0 0 0
SMALL
GASTEIGER

@<TRIPOS>ATOM
      1  O1         3.6450    0.4990    1.5110 O.2     1  UNL1       -0.2418
      2  C1         4.0900    0.0680    0.4040 C.2     1  UNL1        0.3328
      3  N1         3.1370   -0.3890   -0.5230 N.am    1  UNL1       -0.1668
      4  C2         1.7170   -0.3760   -0.2520 C.2     1  UNL1        0.3148
      5  C3         0.9710   -1.4400   -0.2370 C.2     1  UNL1        0.0147
      6  C4        -0.4200   -1.0210    0.0770 C.3     1  UNL1        0.0359
      7  C5        -0.2970    0.4410    0.2330 C.2     1  UNL1        0.1407
      8  C6        -1.4140    1.3560    0.5700 C.3     1  UNL1        0.0541
      9  C7        -2.5340    1.3310   -0.3480 C.ar    1  UNL1        0.0726
     10  N2        -2.6350    2.2720   -1.3040 N.ar    1  UNL1       -0.1752
     11  N3        -3.6230    2.2880   -2.1860 N.ar    1  UNL1       -0.2427
     12  C8        -4.6020    1.3640   -2.1930 C.ar    1  UNL1        0.2682
     13  O2        -5.5490    1.3570   -3.0180 O.2     1  UNL1       -0.2661
     14  C9        -4.5250    0.3850   -1.2220 C.ar    1  UNL1        0.0232
     15  C10       -3.4840    0.3730   -0.2960 C.ar    1  UNL1       -0.0157
     16  C11       -3.4790   -0.6700    0.7070 C.3     1  UNL1       -0.0255
     17  C12       -4.8950   -0.7530    1.2970 C.3     1  UNL1       -0.0487
     18  C13       -5.9480   -0.9620    0.2720 C.3     1  UNL1       -0.0486
     19  C14       -5.5380   -0.6700   -1.1370 C.3     1  UNL1       -0.0222
     20  N4         0.9560    0.7590    0.0310 N.2     1  UNL1       -0.0504
     21  C15        5.5300    0.0710    0.1640 C.ar    1  UNL1        0.0616
     22  C16        6.3910    0.4490    1.1800 C.ar    1  UNL1       -0.0474
     23  C17        7.7650    0.4650    0.9830 C.ar    1  UNL1       -0.0610
     24  C18        8.3230    0.1080   -0.2240 C.ar    1  UNL1       -0.0617
     25  C19        7.4700   -0.2700   -1.2390 C.ar    1  UNL1       -0.0610
     26  C20        6.0850   -0.2860   -1.0410 C.ar    1  UNL1       -0.0474
     27 H           3.4492   -0.7316   -1.3916 H       1  UNL1        0.3016
     28 H           1.2886   -2.4061   -0.4123 H       1  UNL1        0.0657
     29 H          -0.7644   -1.4770    0.9816 H       1  UNL1        0.0392
     30 H          -1.1270   -1.3078   -0.6732 H       1  UNL1        0.0392
     31 H          -1.0282    2.3538    0.5935 H       1  UNL1        0.0411
     32 H          -1.7962    1.0215    1.5117 H       1  UNL1        0.0411
     33 H          -3.6422    3.0031   -2.8624 H       1  UNL1        0.1921
     34 H          -2.7759   -0.4319    1.4776 H       1  UNL1        0.0314
     35 H          -3.1966   -1.6068    0.2739 H       1  UNL1        0.0314
     36 H          -5.1013    0.1607    1.8141 H       1  UNL1        0.0268
     37 H          -4.9165   -1.6003    1.9501 H       1  UNL1        0.0268
     38 H          -6.7748   -0.3272    0.5137 H       1  UNL1        0.0269
     39 H          -6.1846   -2.0051    0.3004 H       1  UNL1        0.0269
     40 H          -5.1393   -1.5635   -1.5700 H       1  UNL1        0.0315
     41 H          -6.4054   -0.3295   -1.6629 H       1  UNL1        0.0315
     42 H           6.0057    0.7229    2.0973 H       1  UNL1        0.0626
     43 H           8.3823    0.7510    1.7590 H       1  UNL1        0.0618
     44 H           9.3453    0.1229   -0.3642 H       1  UNL1        0.0618
     45 H           7.8575   -0.5443   -2.1553 H       1  UNL1        0.0618
     46 H           5.4672   -0.5720   -1.8166 H       1  UNL1        0.0626
@<TRIPOS>BOND
     1     1     2    2
     2     2     3   am
     3     2    21    1
     4     3     4    1
     5     4     5    2
     6     4    20    1
     7     5     6    1
     8     6     7    1
     9     7     8    1
    10     7    20    2
    11     8     9    1
    12     9    10   ar
    13     9    15   ar
    14    10    11   ar
    15    11    12   ar
    16    12    13    2
    17    12    14   ar
    18    14    15   ar
    19    14    19    1
    20    15    16    1
    21    16    17    1
    22    17    18    1
    23    18    19    1
    24    21    22   ar
    25    21    26   ar
    26    22    23   ar
    27    23    24   ar
    28    24    25   ar
    29    25    26   ar
    30     3    27    1
    31     5    28    1
    32     6    29    1
    33     6    30    1
    34     8    31    1
    35     8    32    1
    36    11    33    1
    37    16    34    1
    38    16    35    1
    39    17    36    1
    40    17    37    1
    41    18    38    1
    42    18    39    1
    43    19    40    1
    44    19    41    1
    45    22    42    1
    46    23    43    1
    47    24    44    1
    48    25    45    1
    49    26    46    1
@<TRIPOS>MOLECULE
../data/bude_mols_rdkit_confs2/molecule_70.pdb
 46 49 0 0 0
SMALL
GASTEIGER

@<TRIPOS>ATOM
      1  O1         2.8530    1.3040    0.4270 O.2     1  UNL1       -0.2418
      2  C1         3.5810    0.2710    0.3030 C.2     1  UNL1        0.3328
      3  N1         3.0760   -0.9180    0.8620 N.am    1  UNL1       -0.1668
      4  C2         1.8150   -0.9410    1.5270 C.2     1  UNL1        0.3148
      5  C3         1.6450   -1.2790    2.7790 C.2     1  UNL1        0.0147
      6  C4         0.2220   -1.1800    3.0940 C.3     1  UNL1        0.0359
      7  C5        -0.3960   -0.7300    1.8210 C.2     1  UNL1        0.1407
      8  C6        -1.8490   -0.4650    1.5780 C.3     1  UNL1        0.0541
      9  C7        -2.0820   -0.0400    0.2090 C.ar    1  UNL1        0.0726
     10  N2        -1.0660    0.0740   -0.6550 N.ar    1  UNL1       -0.1752
     11  N3        -1.2610    0.4650   -1.9210 N.ar    1  UNL1       -0.2427
     12  C8        -2.4860    0.7680   -2.4040 C.ar    1  UNL1        0.2682
     13  O2        -2.6470    1.1370   -3.6090 O.2     1  UNL1       -0.2661
     14  C9        -3.5670    0.6680   -1.5560 C.ar    1  UNL1        0.0232
     15  C10       -3.3410    0.2570   -0.2370 C.ar    1  UNL1       -0.0157
     16  C11       -4.5050    0.1590    0.6370 C.3     1  UNL1       -0.0255
     17  C12       -5.5860   -0.5770   -0.1640 C.3     1  UNL1       -0.0487
     18  C13       -6.0110    0.2170   -1.3560 C.3     1  UNL1       -0.0486
     19  C14       -4.9350    0.9900   -2.0340 C.3     1  UNL1       -0.0222
     20  N4         0.5630   -0.6150    0.9750 N.2     1  UNL1       -0.0504
     21  C15        4.8510    0.3710   -0.3860 C.ar    1  UNL1        0.0616
     22  C16        5.6760   -0.7150   -0.5480 C.ar    1  UNL1       -0.0474
     23  C17        6.9040   -0.6320   -1.2100 C.ar    1  UNL1       -0.0610
     24  C18        7.2830    0.5760   -1.7080 C.ar    1  UNL1       -0.0617
     25  C19        6.4820    1.6850   -1.5650 C.ar    1  UNL1       -0.0610
     26  C20        5.2660    1.5850   -0.9040 C.ar    1  UNL1       -0.0474
     27 H           3.6021   -1.7473    0.7927 H       1  UNL1        0.3016
     28 H           2.3896   -1.5667    3.4331 H       1  UNL1        0.0657
     29 H           0.0534   -0.4654    3.8724 H       1  UNL1        0.0392
     30 H          -0.1873   -2.1034    3.4472 H       1  UNL1        0.0392
     31 H          -2.1798    0.3046    2.2438 H       1  UNL1        0.0411
     32 H          -2.3926   -1.3706    1.7495 H       1  UNL1        0.0411
     33 H          -0.4838    0.5341   -2.5213 H       1  UNL1        0.1921
     34 H          -4.8467    1.1357    0.9095 H       1  UNL1        0.0314
     35 H          -4.2689   -0.3625    1.5410 H       1  UNL1        0.0314
     36 H          -6.4350   -0.7423    0.4658 H       1  UNL1        0.0268
     37 H          -5.1810   -1.5072   -0.5039 H       1  UNL1        0.0268
     38 H          -6.7629    0.9090   -1.0389 H       1  UNL1        0.0269
     39 H          -6.3540   -0.4974   -2.0749 H       1  UNL1        0.0269
     40 H          -4.9822    0.7835   -3.0828 H       1  UNL1        0.0315
     41 H          -5.1065    2.0219   -1.8090 H       1  UNL1        0.0315
     42 H           5.3780   -1.6264   -0.1666 H       1  UNL1        0.0626
     43 H           7.5060   -1.4632   -1.3180 H       1  UNL1        0.0618
     44 H           8.1857    0.6616   -2.2008 H       1  UNL1        0.0618
     45 H           6.7859    2.5930   -1.9500 H       1  UNL1        0.0618
     46 H           4.6686    2.4198   -0.7983 H       1  UNL1        0.0626
@<TRIPOS>BOND
     1     1     2    2
     2     2     3   am
     3     2    21    1
     4     3     4    1
     5     4     5    2
     6     4    20    1
     7     5     6    1
     8     6     7    1
     9     7     8    1
    10     7    20    2
    11     8     9    1
    12     9    10   ar
    13     9    15   ar
    14    10    11   ar
    15    11    12   ar
    16    12    13    2
    17    12    14   ar
    18    14    15   ar
    19    14    19    1
    20    15    16    1
    21    16    17    1
    22    17    18    1
    23    18    19    1
    24    21    22   ar
    25    21    26   ar
    26    22    23   ar
    27    23    24   ar
    28    24    25   ar
    29    25    26   ar
    30     3    27    1
    31     5    28    1
    32     6    29    1
    33     6    30    1
    34     8    31    1
    35     8    32    1
    36    11    33    1
    37    16    34    1
    38    16    35    1
    39    17    36    1
    40    17    37    1
    41    18    38    1
    42    18    39    1
    43    19    40    1
    44    19    41    1
    45    22    42    1
    46    23    43    1
    47    24    44    1
    48    25    45    1
    49    26    46    1
@<TRIPOS>MOLECULE
../data/bude_mols_rdkit_confs2/molecule_70.pdb
 46 49 0 0 0
SMALL
GASTEIGER

@<TRIPOS>ATOM
      1  O1         3.6920    1.4060   -0.7260 O.2     1  UNL1       -0.2418
      2  C1         4.1030    0.3090   -0.2150 C.2     1  UNL1        0.3328
      3  N1         3.0880   -0.6230    0.1010 N.am    1  UNL1       -0.1668
      4  C2         1.6970   -0.3210   -0.1490 C.2     1  UNL1        0.3148
      5  C3         0.9470   -1.0460   -0.9510 C.2     1  UNL1        0.0147
      6  C4        -0.4020   -0.4430   -0.9590 C.3     1  UNL1        0.0359
      7  C5        -0.2780    0.7100   -0.0530 C.2     1  UNL1        0.1407
      8  C6        -1.3500    1.6810    0.2950 C.3     1  UNL1        0.0541
      9  C7        -2.5080    1.0300    0.8960 C.ar    1  UNL1        0.0726
     10  N2        -2.6270    1.0540    2.2580 N.ar    1  UNL1       -0.1752
     11  N3        -3.6170    0.4900    2.9080 N.ar    1  UNL1       -0.2427
     12  C8        -4.6020   -0.1640    2.2670 C.ar    1  UNL1        0.2682
     13  O2        -5.5460   -0.7010    2.9020 O.2     1  UNL1       -0.2661
     14  C9        -4.5210   -0.2140    0.8710 C.ar    1  UNL1        0.0232
     15  C10       -3.4900    0.3750    0.1980 C.ar    1  UNL1       -0.0157
     16  C11       -3.4650    0.3150   -1.2640 C.3     1  UNL1       -0.0255
     17  C12       -4.9060    0.4800   -1.7990 C.3     1  UNL1       -0.0487
     18  C13       -5.7840   -0.6110   -1.2720 C.3     1  UNL1       -0.0486
     19  C14       -5.5970   -0.9340    0.1660 C.3     1  UNL1       -0.0222
     20  N4         0.9520    0.7480    0.3990 N.2     1  UNL1       -0.0504
     21  C15        5.5280    0.0800    0.0080 C.ar    1  UNL1        0.0616
     22  C16        5.9910   -1.0790    0.5870 C.ar    1  UNL1       -0.0474
     23  C17        7.3640   -1.2770    0.7910 C.ar    1  UNL1       -0.0610
     24  C18        8.2860   -0.3200    0.4190 C.ar    1  UNL1       -0.0617
     25  C19        7.8230    0.8380   -0.1590 C.ar    1  UNL1       -0.0610
     26  C20        6.4520    1.0390   -0.3640 C.ar    1  UNL1       -0.0474
     27 H           3.3324   -1.4905    0.4972 H       1  UNL1        0.3016
     28 H           1.2459   -1.8818   -1.4775 H       1  UNL1        0.0657
     29 H          -1.1314   -1.1364   -0.5955 H       1  UNL1        0.0392
     30 H          -0.7244   -0.1645   -1.9405 H       1  UNL1        0.0392
     31 H          -1.6616    2.1845   -0.5962 H       1  UNL1        0.0411
     32 H          -0.9509    2.3686    1.0111 H       1  UNL1        0.0411
     33 H          -3.6396    0.5469    3.8906 H       1  UNL1        0.1921
     34 H          -3.0718   -0.6294   -1.5776 H       1  UNL1        0.0314
     35 H          -2.8450    1.0982   -1.6475 H       1  UNL1        0.0314
     36 H          -4.8927    0.4369   -2.8680 H       1  UNL1        0.0268
     37 H          -5.2915    1.4240   -1.4749 H       1  UNL1        0.0268
     38 H          -5.5873   -1.4971   -1.8386 H       1  UNL1        0.0269
     39 H          -6.7889   -0.2564   -1.3686 H       1  UNL1        0.0269
     40 H          -6.5161   -0.7174    0.6693 H       1  UNL1        0.0315
     41 H          -5.3079   -1.9640    0.1879 H       1  UNL1        0.0315
     42 H           5.3212   -1.8098    0.8740 H       1  UNL1        0.0626
     43 H           7.6907   -2.1535    1.2269 H       1  UNL1        0.0618
     44 H           9.2958   -0.4697    0.5706 H       1  UNL1        0.0618
     45 H           8.4936    1.5682   -0.4454 H       1  UNL1        0.0618
     46 H           6.1266    1.9163   -0.7993 H       1  UNL1        0.0626
@<TRIPOS>BOND
     1     1     2    2
     2     2     3   am
     3     2    21    1
     4     3     4    1
     5     4     5    2
     6     4    20    1
     7     5     6    1
     8     6     7    1
     9     7     8    1
    10     7    20    2
    11     8     9    1
    12     9    10   ar
    13     9    15   ar
    14    10    11   ar
    15    11    12   ar
    16    12    13    2
    17    12    14   ar
    18    14    15   ar
    19    14    19    1
    20    15    16    1
    21    16    17    1
    22    17    18    1
    23    18    19    1
    24    21    22   ar
    25    21    26   ar
    26    22    23   ar
    27    23    24   ar
    28    24    25   ar
    29    25    26   ar
    30     3    27    1
    31     5    28    1
    32     6    29    1
    33     6    30    1
    34     8    31    1
    35     8    32    1
    36    11    33    1
    37    16    34    1
    38    16    35    1
    39    17    36    1
    40    17    37    1
    41    18    38    1
    42    18    39    1
    43    19    40    1
    44    19    41    1
    45    22    42    1
    46    23    43    1
    47    24    44    1
    48    25    45    1
    49    26    46    1
@<TRIPOS>MOLECULE
../data/bude_mols_rdkit_confs2/molecule_70.pdb
 46 49 0 0 0
SMALL
GASTEIGER

@<TRIPOS>ATOM
      1  O1         3.5950   -0.1200   -2.0380 O.2     1  UNL1       -0.2418
      2  C1         4.0220    0.0440   -0.8510 C.2     1  UNL1        0.3328
      3  N1         3.0990    0.3510    0.1600 N.am    1  UNL1       -0.1668
      4  C2         1.6960    0.4990   -0.0360 C.2     1  UNL1        0.3148
      5  C3         0.9950    0.3980   -1.1270 C.2     1  UNL1        0.0147
      6  C4        -0.4420    0.6390   -0.8180 C.3     1  UNL1        0.0359
      7  C5        -0.4240    0.8900    0.6350 C.2     1  UNL1        0.1407
      8  C6        -1.5720    1.1980    1.5640 C.3     1  UNL1        0.0541
      9  C7        -2.5260    0.0890    1.5270 C.ar    1  UNL1        0.0726
     10  N2        -2.5060   -0.8620    2.5120 N.ar    1  UNL1       -0.1752
     11  N3        -3.3360   -1.8630    2.4840 N.ar    1  UNL1       -0.2427
     12  C8        -4.2620   -2.0140    1.4800 C.ar    1  UNL1        0.2682
     13  O2        -5.0500   -2.9930    1.4820 O.2     1  UNL1       -0.2661
     14  C9        -4.3290   -1.0960    0.4700 C.ar    1  UNL1        0.0232
     15  C10       -3.4370   -0.0270    0.5080 C.ar    1  UNL1       -0.0157
     16  C11       -3.5660    0.9460   -0.5990 C.3     1  UNL1       -0.0255
     17  C12       -5.0110    1.2860   -0.9040 C.3     1  UNL1       -0.0487
     18  C13       -5.9860    0.1800   -0.6830 C.3     1  UNL1       -0.0486
     19  C14       -5.2790   -1.1560   -0.6440 C.3     1  UNL1       -0.0222
     20  N4         0.7890    0.7990    1.0130 N.2     1  UNL1       -0.0504
     21  C15        5.4440   -0.0980   -0.6120 C.ar    1  UNL1        0.0616
     22  C16        6.0380    0.2270    0.5840 C.ar    1  UNL1       -0.0474
     23  C17        7.4110    0.0690    0.7690 C.ar    1  UNL1       -0.0610
     24  C18        8.1760   -0.4170   -0.2580 C.ar    1  UNL1       -0.0617
     25  C19        7.6070   -0.7490   -1.4640 C.ar    1  UNL1       -0.0610
     26  C20        6.2450   -0.5820   -1.6180 C.ar    1  UNL1       -0.0474
     27 H           3.4469    0.4732    1.0728 H       1  UNL1        0.3016
     28 H           1.3756    0.1840   -2.0621 H       1  UNL1        0.0657
     29 H          -1.0364   -0.2188   -1.0539 H       1  UNL1        0.0392
     30 H          -0.8685    1.4419   -1.3821 H       1  UNL1        0.0392
     31 H          -2.0565    2.0986    1.2491 H       1  UNL1        0.0411
     32 H          -1.2056    1.3263    2.5611 H       1  UNL1        0.0411
     33 H          -3.2997   -2.5331    3.2043 H       1  UNL1        0.1921
     34 H          -3.1185    0.5290   -1.4769 H       1  UNL1        0.0314
     35 H          -3.0749    1.8481   -0.2992 H       1  UNL1        0.0314
     36 H          -5.0718    1.5799   -1.9310 H       1  UNL1        0.0268
     37 H          -5.2833    2.0618   -0.2192 H       1  UNL1        0.0268
     38 H          -6.6998    0.1765   -1.4801 H       1  UNL1        0.0269
     39 H          -6.4772    0.3367    0.2546 H       1  UNL1        0.0269
     40 H          -5.9860   -1.9430   -0.4840 H       1  UNL1        0.0315
     41 H          -4.7772   -1.3535   -1.5682 H       1  UNL1        0.0315
     42 H           5.4596    0.5932    1.3562 H       1  UNL1        0.0626
     43 H           7.8467    0.3159    1.6713 H       1  UNL1        0.0618
     44 H           9.1925   -0.5353   -0.1244 H       1  UNL1        0.0618
     45 H           8.1845   -1.1148   -2.2371 H       1  UNL1        0.0618
     46 H           5.8128   -0.8298   -2.5218 H       1  UNL1        0.0626
@<TRIPOS>BOND
     1     1     2    2
     2     2     3   am
     3     2    21    1
     4     3     4    1
     5     4     5    2
     6     4    20    1
     7     5     6    1
     8     6     7    1
     9     7     8    1
    10     7    20    2
    11     8     9    1
    12     9    10   ar
    13     9    15   ar
    14    10    11   ar
    15    11    12   ar
    16    12    13    2
    17    12    14   ar
    18    14    15   ar
    19    14    19    1
    20    15    16    1
    21    16    17    1
    22    17    18    1
    23    18    19    1
    24    21    22   ar
    25    21    26   ar
    26    22    23   ar
    27    23    24   ar
    28    24    25   ar
    29    25    26   ar
    30     3    27    1
    31     5    28    1
    32     6    29    1
    33     6    30    1
    34     8    31    1
    35     8    32    1
    36    11    33    1
    37    16    34    1
    38    16    35    1
    39    17    36    1
    40    17    37    1
    41    18    38    1
    42    18    39    1
    43    19    40    1
    44    19    41    1
    45    22    42    1
    46    23    43    1
    47    24    44    1
    48    25    45    1
    49    26    46    1
@<TRIPOS>MOLECULE
../data/bude_mols_rdkit_confs2/molecule_70.pdb
 46 49 0 0 0
SMALL
GASTEIGER

@<TRIPOS>ATOM
      1  O1         3.7080   -1.3230    0.4190 O.2     1  UNL1       -0.2418
      2  C1         4.2160   -0.3000   -0.1400 C.2     1  UNL1        0.3328
      3  N1         3.3540    0.4970   -0.9100 N.am    1  UNL1       -0.1668
      4  C2         1.9600    0.1420   -1.0330 C.2     1  UNL1        0.3148
      5  C3         1.3340   -0.1530   -2.1580 C.2     1  UNL1        0.0147
      6  C4        -0.0730   -0.4520   -1.8060 C.3     1  UNL1        0.0359
      7  C5        -0.1280   -0.2790   -0.3550 C.2     1  UNL1        0.1407
      8  C6        -1.2770   -0.4560    0.5920 C.3     1  UNL1        0.0541
      9  C7        -2.4110    0.3640    0.0680 C.ar    1  UNL1        0.0726
     10  N2        -2.1520    1.4600   -0.6650 N.ar    1  UNL1       -0.1752
     11  N3        -3.1400    2.1660   -1.1810 N.ar    1  UNL1       -0.2427
     12  C8        -4.4370    1.8320   -1.0040 C.ar    1  UNL1        0.2682
     13  O2        -5.4010    2.5010   -1.4940 O.2     1  UNL1       -0.2661
     14  C9        -4.7150    0.7080   -0.2520 C.ar    1  UNL1        0.0232
     15  C10       -3.7000   -0.0490    0.3000 C.ar    1  UNL1       -0.0157
     16  C11       -3.9400   -1.2300    1.1120 C.3     1  UNL1       -0.0255
     17  C12       -5.3300   -1.4490    1.5920 C.3     1  UNL1       -0.0487
     18  C13       -6.3200   -0.3810    1.2870 C.3     1  UNL1       -0.0486
     19  C14       -6.1020    0.2990   -0.0290 C.3     1  UNL1       -0.0222
     20  N4         1.0450    0.0570    0.0500 N.2     1  UNL1       -0.0504
     21  C15        5.6290   -0.0630    0.0700 C.ar    1  UNL1        0.0616
     22  C16        6.4490   -1.1080    0.4200 C.ar    1  UNL1       -0.0474
     23  C17        7.7960   -0.9400    0.6420 C.ar    1  UNL1       -0.0610
     24  C18        8.3590    0.3180    0.5110 C.ar    1  UNL1       -0.0617
     25  C19        7.5520    1.3700    0.1610 C.ar    1  UNL1       -0.0610
     26  C20        6.2160    1.1910   -0.0560 C.ar    1  UNL1       -0.0474
     27 H           3.7001    1.2979   -1.3660 H       1  UNL1        0.3016
     28 H           1.7472   -0.1716   -3.1035 H       1  UNL1        0.0657
     29 H          -0.3265   -1.4554   -2.0778 H       1  UNL1        0.0392
     30 H          -0.7659    0.1814   -2.3194 H       1  UNL1        0.0392
     31 H          -1.0018   -0.1190    1.5695 H       1  UNL1        0.0411
     32 H          -1.5548   -1.4868    0.6641 H       1  UNL1        0.0411
     33 H          -2.9243    2.9650   -1.7142 H       1  UNL1        0.1921
     34 H          -3.3081   -1.1635    1.9729 H       1  UNL1        0.0314
     35 H          -3.7362   -2.0576    0.4652 H       1  UNL1        0.0314
     36 H          -5.2916   -1.5610    2.6554 H       1  UNL1        0.0268
     37 H          -5.6767   -2.3121    1.0631 H       1  UNL1        0.0268
     38 H          -6.2660    0.3574    2.0595 H       1  UNL1        0.0269
     39 H          -7.2777   -0.8551    1.2336 H       1  UNL1        0.0269
     40 H          -6.3859   -0.3753   -0.8098 H       1  UNL1        0.0315
     41 H          -6.6959    1.1891   -0.0255 H       1  UNL1        0.0315
     42 H           6.0408   -2.0506    0.5197 H       1  UNL1        0.0626
     43 H           8.3834   -1.7468    0.9046 H       1  UNL1        0.0618
     44 H           9.3679    0.4615    0.6738 H       1  UNL1        0.0618
     45 H           7.9611    2.3121    0.0600 H       1  UNL1        0.0618
     46 H           5.6318    2.0004   -0.3180 H       1  UNL1        0.0626
@<TRIPOS>BOND
     1     1     2    2
     2     2     3   am
     3     2    21    1
     4     3     4    1
     5     4     5    2
     6     4    20    1
     7     5     6    1
     8     6     7    1
     9     7     8    1
    10     7    20    2
    11     8     9    1
    12     9    10   ar
    13     9    15   ar
    14    10    11   ar
    15    11    12   ar
    16    12    13    2
    17    12    14   ar
    18    14    15   ar
    19    14    19    1
    20    15    16    1
    21    16    17    1
    22    17    18    1
    23    18    19    1
    24    21    22   ar
    25    21    26   ar
    26    22    23   ar
    27    23    24   ar
    28    24    25   ar
    29    25    26   ar
    30     3    27    1
    31     5    28    1
    32     6    29    1
    33     6    30    1
    34     8    31    1
    35     8    32    1
    36    11    33    1
    37    16    34    1
    38    16    35    1
    39    17    36    1
    40    17    37    1
    41    18    38    1
    42    18    39    1
    43    19    40    1
    44    19    41    1
    45    22    42    1
    46    23    43    1
    47    24    44    1
    48    25    45    1
    49    26    46    1
@<TRIPOS>MOLECULE
../data/bude_mols_rdkit_confs2/molecule_70.pdb
 46 49 0 0 0
SMALL
GASTEIGER

@<TRIPOS>ATOM
      1  O1         3.3220   -1.3910    0.0590 O.2     1  UNL1       -0.2418
      2  C1         3.9340   -0.3040   -0.0710 C.2     1  UNL1        0.3328
      3  N1         3.1480    0.8750   -0.0880 N.am    1  UNL1       -0.1668
      4  C2         1.7300    0.9160    0.0380 C.2     1  UNL1        0.3148
      5  C3         0.9610    1.3530   -0.9460 C.2     1  UNL1        0.0147
      6  C4        -0.4670    1.2780   -0.5180 C.3     1  UNL1        0.0359
      7  C5        -0.3720    0.7500    0.8480 C.2     1  UNL1        0.1407
      8  C6        -1.4530    0.4590    1.8430 C.3     1  UNL1        0.0541
      9  C7        -2.4160   -0.5370    1.3610 C.ar    1  UNL1        0.0726
     10  N2        -2.1330   -1.8420    1.6000 N.ar    1  UNL1       -0.1752
     11  N3        -2.8360   -2.8530    1.2050 N.ar    1  UNL1       -0.2427
     12  C8        -3.9470   -2.5950    0.4940 C.ar    1  UNL1        0.2682
     13  O2        -4.6680   -3.5360    0.0850 O.2     1  UNL1       -0.2661
     14  C9        -4.3490   -1.3060    0.1820 C.ar    1  UNL1        0.0232
     15  C10       -3.5590   -0.2470    0.6320 C.ar    1  UNL1       -0.0157
     16  C11       -3.9610    1.1560    0.4080 C.3     1  UNL1       -0.0255
     17  C12       -4.8990    1.2200   -0.7770 C.3     1  UNL1       -0.0487
     18  C13       -6.0630    0.3000   -0.4420 C.3     1  UNL1       -0.0486
     19  C14       -5.5820   -1.1020   -0.6130 C.3     1  UNL1       -0.0222
     20  N4         0.8940    0.5680    1.0940 N.2     1  UNL1       -0.0504
     21  C15        5.4000   -0.2490   -0.2000 C.ar    1  UNL1        0.0616
     22  C16        6.0670    0.8840    0.2110 C.ar    1  UNL1       -0.0474
     23  C17        7.4420    1.0090    0.1000 C.ar    1  UNL1       -0.0610
     24  C18        8.1810   -0.0310   -0.4380 C.ar    1  UNL1       -0.0617
     25  C19        7.5320   -1.1830   -0.8580 C.ar    1  UNL1       -0.0610
     26  C20        6.1630   -1.2620   -0.7290 C.ar    1  UNL1       -0.0474
     27 H           3.6190    1.7328   -0.1953 H       1  UNL1        0.3016
     28 H           1.2948    1.6913   -1.8621 H       1  UNL1        0.0657
     29 H          -1.0237    0.6167   -1.1486 H       1  UNL1        0.0392
     30 H          -0.9749    2.2181   -0.5735 H       1  UNL1        0.0392
     31 H          -1.9774    1.3676    2.0536 H       1  UNL1        0.0411
     32 H          -0.9859    0.0583    2.7183 H       1  UNL1        0.0411
     33 H          -2.5677   -3.7762    1.4170 H       1  UNL1        0.1921
     34 H          -3.0932    1.7500    0.2103 H       1  UNL1        0.0314
     35 H          -4.4552    1.5324    1.2792 H       1  UNL1        0.0314
     36 H          -4.4022    0.8832   -1.6628 H       1  UNL1        0.0268
     37 H          -5.2310    2.2206   -0.9599 H       1  UNL1        0.0268
     38 H          -6.8821    0.4896   -1.1038 H       1  UNL1        0.0269
     39 H          -6.4014    0.4655    0.5595 H       1  UNL1        0.0269
     40 H          -6.3380   -1.7810   -0.2778 H       1  UNL1        0.0315
     41 H          -5.3715   -1.2813   -1.6466 H       1  UNL1        0.0315
     42 H           5.5252    1.6643    0.6143 H       1  UNL1        0.0626
     43 H           7.9125    1.8714    0.4161 H       1  UNL1        0.0618
     44 H           9.2061    0.0501   -0.5258 H       1  UNL1        0.0618
     45 H           8.0666   -1.9685   -1.2608 H       1  UNL1        0.0618
     46 H           5.6881   -2.1222   -1.0444 H       1  UNL1        0.0626
@<TRIPOS>BOND
     1     1     2    2
     2     2     3   am
     3     2    21    1
     4     3     4    1
     5     4     5    2
     6     4    20    1
     7     5     6    1
     8     6     7    1
     9     7     8    1
    10     7    20    2
    11     8     9    1
    12     9    10   ar
    13     9    15   ar
    14    10    11   ar
    15    11    12   ar
    16    12    13    2
    17    12    14   ar
    18    14    15   ar
    19    14    19    1
    20    15    16    1
    21    16    17    1
    22    17    18    1
    23    18    19    1
    24    21    22   ar
    25    21    26   ar
    26    22    23   ar
    27    23    24   ar
    28    24    25   ar
    29    25    26   ar
    30     3    27    1
    31     5    28    1
    32     6    29    1
    33     6    30    1
    34     8    31    1
    35     8    32    1
    36    11    33    1
    37    16    34    1
    38    16    35    1
    39    17    36    1
    40    17    37    1
    41    18    38    1
    42    18    39    1
    43    19    40    1
    44    19    41    1
    45    22    42    1
    46    23    43    1
    47    24    44    1
    48    25    45    1
    49    26    46    1
@<TRIPOS>MOLECULE
../data/bude_mols_rdkit_confs2/molecule_70.pdb
 46 49 0 0 0
SMALL
GASTEIGER

@<TRIPOS>ATOM
      1  O1         1.9110    1.1290   -0.3700 O.2     1  UNL1       -0.2418
      2  C1         2.8330    0.3080   -0.1270 C.2     1  UNL1        0.3328
      3  N1         2.6000   -0.6300    0.8920 N.am    1  UNL1       -0.1668
      4  C2         1.3830   -0.7080    1.6670 C.2     1  UNL1        0.3148
      5  C3         1.3530   -0.5680    2.9720 C.2     1  UNL1        0.0147
      6  C4        -0.0440   -0.7070    3.4130 C.3     1  UNL1        0.0359
      7  C5        -0.7740   -0.9450    2.1520 C.2     1  UNL1        0.1407
      8  C6        -2.2590   -1.1500    2.1030 C.3     1  UNL1        0.0541
      9  C7        -2.7300   -1.3660    0.7120 C.ar    1  UNL1        0.0726
     10  N2        -3.0790   -2.5800    0.2340 N.ar    1  UNL1       -0.1752
     11  N3        -3.4990   -2.7620   -1.0060 N.ar    1  UNL1       -0.2427
     12  C8        -3.6100   -1.7460   -1.8880 C.ar    1  UNL1        0.2682
     13  O2        -4.0140   -1.9620   -3.0620 O.2     1  UNL1       -0.2661
     14  C9        -3.2710   -0.4790   -1.4720 C.ar    1  UNL1        0.0232
     15  C10       -2.8330   -0.3110   -0.1670 C.ar    1  UNL1       -0.0157
     16  C11       -2.4800    1.0660    0.2300 C.3     1  UNL1       -0.0255
     17  C12       -3.5550    1.9890   -0.2500 C.3     1  UNL1       -0.0487
     18  C13       -3.8370    1.9270   -1.7110 C.3     1  UNL1       -0.0486
     19  C14       -3.3680    0.6710   -2.3790 C.3     1  UNL1       -0.0222
     20  N4         0.0770   -0.9330    1.2180 N.2     1  UNL1       -0.0504
     21  C15        4.0490    0.3940   -0.9100 C.ar    1  UNL1        0.0616
     22  C16        4.2090    1.3590   -1.8750 C.ar    1  UNL1       -0.0474
     23  C17        5.3660    1.4600   -2.6380 C.ar    1  UNL1       -0.0610
     24  C18        6.3880    0.5620   -2.4190 C.ar    1  UNL1       -0.0617
     25  C19        6.2580   -0.4180   -1.4570 C.ar    1  UNL1       -0.0610
     26  C20        5.0820   -0.4930   -0.7070 C.ar    1  UNL1       -0.0474
     27 H           3.3138   -1.2779    1.0917 H       1  UNL1        0.3016
     28 H           2.1666   -0.3914    3.5818 H       1  UNL1        0.0657
     29 H          -0.3860    0.1869    3.8915 H       1  UNL1        0.0392
     30 H          -0.1815   -1.4882    4.1312 H       1  UNL1        0.0392
     31 H          -2.7434   -0.2844    2.5042 H       1  UNL1        0.0411
     32 H          -2.4982   -2.0197    2.6785 H       1  UNL1        0.0411
     33 H          -3.7396   -3.6713   -1.2969 H       1  UNL1        0.1921
     34 H          -1.5449    1.3405   -0.2118 H       1  UNL1        0.0314
     35 H          -2.3910    1.1292    1.2944 H       1  UNL1        0.0314
     36 H          -3.2628    2.9903   -0.0113 H       1  UNL1        0.0268
     37 H          -4.4542    1.6784    0.2398 H       1  UNL1        0.0268
     38 H          -3.3522    2.7571   -2.1809 H       1  UNL1        0.0269
     39 H          -4.9014    1.9505   -1.8178 H       1  UNL1        0.0269
     40 H          -4.0562    0.4272   -3.1612 H       1  UNL1        0.0315
     41 H          -2.3819    0.8624   -2.7477 H       1  UNL1        0.0315
     42 H           3.4438    2.0318   -2.0387 H       1  UNL1        0.0626
     43 H           5.4583    2.1951   -3.3565 H       1  UNL1        0.0618
     44 H           7.2541    0.6229   -2.9769 H       1  UNL1        0.0618
     45 H           7.0235   -1.0904   -1.2927 H       1  UNL1        0.0618
     46 H           4.9858   -1.2267    0.0124 H       1  UNL1        0.0626
@<TRIPOS>BOND
     1     1     2    2
     2     2     3   am
     3     2    21    1
     4     3     4    1
     5     4     5    2
     6     4    20    1
     7     5     6    1
     8     6     7    1
     9     7     8    1
    10     7    20    2
    11     8     9    1
    12     9    10   ar
    13     9    15   ar
    14    10    11   ar
    15    11    12   ar
    16    12    13    2
    17    12    14   ar
    18    14    15   ar
    19    14    19    1
    20    15    16    1
    21    16    17    1
    22    17    18    1
    23    18    19    1
    24    21    22   ar
    25    21    26   ar
    26    22    23   ar
    27    23    24   ar
    28    24    25   ar
    29    25    26   ar
    30     3    27    1
    31     5    28    1
    32     6    29    1
    33     6    30    1
    34     8    31    1
    35     8    32    1
    36    11    33    1
    37    16    34    1
    38    16    35    1
    39    17    36    1
    40    17    37    1
    41    18    38    1
    42    18    39    1
    43    19    40    1
    44    19    41    1
    45    22    42    1
    46    23    43    1
    47    24    44    1
    48    25    45    1
    49    26    46    1
@<TRIPOS>MOLECULE
../data/bude_mols_rdkit_confs2/molecule_70.pdb
 46 49 0 0 0
SMALL
GASTEIGER

@<TRIPOS>ATOM
      1  O1        -3.1220   -0.4440    1.0650 O.2     1  UNL1       -0.2418
      2  C1        -3.8420   -0.1660    0.0420 C.2     1  UNL1        0.3328
      3  N1        -3.1730    0.1050   -1.1730 N.am    1  UNL1       -0.1668
      4  C2        -1.7540    0.0560   -1.1940 C.2     1  UNL1        0.3148
      5  C3        -1.0110    1.0920   -1.5220 C.2     1  UNL1        0.0147
      6  C4         0.3960    0.6690   -1.4310 C.3     1  UNL1        0.0359
      7  C5         0.3270   -0.7390   -1.0070 C.2     1  UNL1        0.1407
      8  C6         1.4700   -1.6420   -0.7590 C.3     1  UNL1        0.0541
      9  C7         2.3940   -1.1940    0.2950 C.ar    1  UNL1        0.0726
     10  N2         2.3140   -1.7340    1.5460 N.ar    1  UNL1       -0.1752
     11  N3         3.0900   -1.3760    2.5420 N.ar    1  UNL1       -0.2427
     12  C8         4.0320   -0.4320    2.3820 C.ar    1  UNL1        0.2682
     13  O2         4.7890   -0.0760    3.3360 O.2     1  UNL1       -0.2661
     14  C9         4.1510    0.1510    1.1140 C.ar    1  UNL1        0.0232
     15  C10        3.3280   -0.2330    0.0630 C.ar    1  UNL1       -0.0157
     16  C11        3.5410    0.4300   -1.2490 C.3     1  UNL1       -0.0255
     17  C12        5.0550    0.3630   -1.5010 C.3     1  UNL1       -0.0487
     18  C13        5.8500    1.0300   -0.4330 C.3     1  UNL1       -0.0486
     19  C14        5.1650    1.1930    0.8810 C.3     1  UNL1       -0.0222
     20  N4        -0.9210   -1.0500   -0.8830 N.2     1  UNL1       -0.0504
     21  C15       -5.2880   -0.1430    0.1790 C.ar    1  UNL1        0.0616
     22  C16       -5.8260   -0.4760    1.4190 C.ar    1  UNL1       -0.0474
     23  C17       -7.1950   -0.4570    1.5620 C.ar    1  UNL1       -0.0610
     24  C18       -7.9850   -0.1150    0.4910 C.ar    1  UNL1       -0.0617
     25  C19       -7.4620    0.2160   -0.7420 C.ar    1  UNL1       -0.0610
     26  C20       -6.0660    0.1970   -0.8860 C.ar    1  UNL1       -0.0474
     27 H          -3.6803    0.3233   -1.9880 H       1  UNL1        0.3016
     28 H          -1.3519    2.0277   -1.7928 H       1  UNL1        0.0657
     29 H           0.9224    1.2569   -0.7084 H       1  UNL1        0.0392
     30 H           0.9199    0.7918   -2.3558 H       1  UNL1        0.0392
     31 H           2.0241   -1.7352   -1.6696 H       1  UNL1        0.0411
     32 H           1.0540   -2.5680   -0.4208 H       1  UNL1        0.0411
     33 H           2.9799   -1.8063    3.4206 H       1  UNL1        0.1921
     34 H           3.2127    1.4477   -1.2115 H       1  UNL1        0.0314
     35 H           2.9868   -0.0474   -2.0299 H       1  UNL1        0.0314
     36 H           5.2674    0.8416   -2.4341 H       1  UNL1        0.0268
     37 H           5.3336   -0.6701   -1.5111 H       1  UNL1        0.0268
     38 H           6.1206    2.0036   -0.7850 H       1  UNL1        0.0269
     39 H           6.6843    0.3863   -0.2474 H       1  UNL1        0.0269
     40 H           5.8970    1.1414    1.6597 H       1  UNL1        0.0315
     41 H           4.6670    2.1400    0.8760 H       1  UNL1        0.0315
     42 H          -5.2145   -0.7305    2.2104 H       1  UNL1        0.0626
     43 H          -7.6255   -0.6982    2.4684 H       1  UNL1        0.0618
     44 H          -9.0096   -0.1054    0.6137 H       1  UNL1        0.0618
     45 H          -8.0764    0.4690   -1.5316 H       1  UNL1        0.0618
     46 H          -5.6328    0.4386   -1.7910 H       1  UNL1        0.0626
@<TRIPOS>BOND
     1     1     2    2
     2     2     3   am
     3     2    21    1
     4     3     4    1
     5     4     5    2
     6     4    20    1
     7     5     6    1
     8     6     7    1
     9     7     8    1
    10     7    20    2
    11     8     9    1
    12     9    10   ar
    13     9    15   ar
    14    10    11   ar
    15    11    12   ar
    16    12    13    2
    17    12    14   ar
    18    14    15   ar
    19    14    19    1
    20    15    16    1
    21    16    17    1
    22    17    18    1
    23    18    19    1
    24    21    22   ar
    25    21    26   ar
    26    22    23   ar
    27    23    24   ar
    28    24    25   ar
    29    25    26   ar
    30     3    27    1
    31     5    28    1
    32     6    29    1
    33     6    30    1
    34     8    31    1
    35     8    32    1
    36    11    33    1
    37    16    34    1
    38    16    35    1
    39    17    36    1
    40    17    37    1
    41    18    38    1
    42    18    39    1
    43    19    40    1
    44    19    41    1
    45    22    42    1
    46    23    43    1
    47    24    44    1
    48    25    45    1
    49    26    46    1
@<TRIPOS>MOLECULE
../data/bude_mols_rdkit_confs2/molecule_70.pdb
 46 49 0 0 0
SMALL
GASTEIGER

@<TRIPOS>ATOM
      1  O1         3.5930   -0.3370    1.7810 O.2     1  UNL1       -0.2418
      2  C1         4.1500    0.0140    0.6950 C.2     1  UNL1        0.3328
      3  N1         3.3330    0.7640   -0.1950 N.am    1  UNL1       -0.1668
      4  C2         1.9690    1.0820    0.1520 C.2     1  UNL1        0.3148
      5  C3         1.5190    2.3200    0.2600 C.2     1  UNL1        0.0147
      6  C4         0.0920    2.2280    0.6260 C.3     1  UNL1        0.0359
      7  C5        -0.1710    0.7860    0.7030 C.2     1  UNL1        0.1407
      8  C6        -1.4740    0.1040    1.0410 C.3     1  UNL1        0.0541
      9  C7        -2.4990    0.4930    0.0600 C.ar    1  UNL1        0.0726
     10  N2        -2.2620    1.3380   -0.9760 N.ar    1  UNL1       -0.1752
     11  N3        -3.2120    1.6630   -1.8380 N.ar    1  UNL1       -0.2427
     12  C8        -4.4750    1.1820   -1.7500 C.ar    1  UNL1        0.2682
     13  O2        -5.3760    1.4880   -2.5640 O.2     1  UNL1       -0.2661
     14  C9        -4.7530    0.3330   -0.7270 C.ar    1  UNL1        0.0232
     15  C10       -3.7740   -0.0160    0.1810 C.ar    1  UNL1       -0.0157
     16  C11       -4.1920   -0.9510    1.2580 C.3     1  UNL1       -0.0255
     17  C12       -4.8120   -2.1520    0.5800 C.3     1  UNL1       -0.0487
     18  C13       -5.9640   -1.7550   -0.2760 C.3     1  UNL1       -0.0486
     19  C14       -6.1010   -0.2780   -0.5000 C.3     1  UNL1       -0.0222
     20  N4         0.9310    0.1800    0.4250 N.2     1  UNL1       -0.0504
     21  C15        5.5290   -0.3450    0.4160 C.ar    1  UNL1        0.0616
     22  C16        6.2320   -1.0770    1.3480 C.ar    1  UNL1       -0.0474
     23  C17        7.5580   -1.4470    1.1300 C.ar    1  UNL1       -0.0610
     24  C18        8.1850   -1.0800   -0.0350 C.ar    1  UNL1       -0.0617
     25  C19        7.4990   -0.3480   -0.9800 C.ar    1  UNL1       -0.0610
     26  C20        6.1790    0.0110   -0.7440 C.ar    1  UNL1       -0.0474
     27 H           3.7013    1.0690   -1.0556 H       1  UNL1        0.3016
     28 H           2.0618    3.1858    0.1159 H       1  UNL1        0.0657
     29 H          -0.5213    2.6856   -0.1219 H       1  UNL1        0.0392
     30 H          -0.1279    2.7330    1.5434 H       1  UNL1        0.0392
     31 H          -1.7875    0.3989    2.0206 H       1  UNL1        0.0411
     32 H          -1.3390   -0.9571    1.0146 H       1  UNL1        0.0411
     33 H          -2.9917    2.2796   -2.5732 H       1  UNL1        0.1921
     34 H          -4.9082   -0.4790    1.8977 H       1  UNL1        0.0314
     35 H          -3.3562   -1.2400    1.8603 H       1  UNL1        0.0314
     36 H          -5.1532   -2.8370    1.3279 H       1  UNL1        0.0268
     37 H          -4.0708   -2.6089   -0.0418 H       1  UNL1        0.0268
     38 H          -6.8613   -2.1058    0.1896 H       1  UNL1        0.0269
     39 H          -5.7894   -2.1908   -1.2375 H       1  UNL1        0.0269
     40 H          -6.7172   -0.1054   -1.3576 H       1  UNL1        0.0315
     41 H          -6.5478    0.1682    0.3638 H       1  UNL1        0.0315
     42 H           5.7670   -1.3571    2.2257 H       1  UNL1        0.0626
     43 H           8.0666   -1.9947    1.8416 H       1  UNL1        0.0618
     44 H           9.1665   -1.3513   -0.2025 H       1  UNL1        0.0618
     45 H           7.9639   -0.0684   -1.8579 H       1  UNL1        0.0618
     46 H           5.6719    0.5589   -1.4565 H       1  UNL1        0.0626
@<TRIPOS>BOND
     1     1     2    2
     2     2     3   am
     3     2    21    1
     4     3     4    1
     5     4     5    2
     6     4    20    1
     7     5     6    1
     8     6     7    1
     9     7     8    1
    10     7    20    2
    11     8     9    1
    12     9    10   ar
    13     9    15   ar
    14    10    11   ar
    15    11    12   ar
    16    12    13    2
    17    12    14   ar
    18    14    15   ar
    19    14    19    1
    20    15    16    1
    21    16    17    1
    22    17    18    1
    23    18    19    1
    24    21    22   ar
    25    21    26   ar
    26    22    23   ar
    27    23    24   ar
    28    24    25   ar
    29    25    26   ar
    30     3    27    1
    31     5    28    1
    32     6    29    1
    33     6    30    1
    34     8    31    1
    35     8    32    1
    36    11    33    1
    37    16    34    1
    38    16    35    1
    39    17    36    1
    40    17    37    1
    41    18    38    1
    42    18    39    1
    43    19    40    1
    44    19    41    1
    45    22    42    1
    46    23    43    1
    47    24    44    1
    48    25    45    1
    49    26    46    1
@<TRIPOS>MOLECULE
../data/bude_mols_rdkit_confs2/molecule_70.pdb
 46 49 0 0 0
SMALL
GASTEIGER

@<TRIPOS>ATOM
      1  O1         2.9740    1.2270    0.7300 O.2     1  UNL1       -0.2418
      2  C1         3.7440    0.2920    0.3190 C.2     1  UNL1        0.3328
      3  N1         3.1190   -0.8290   -0.2780 N.am    1  UNL1       -0.1668
      4  C2         1.6890   -0.9140   -0.4170 C.2     1  UNL1        0.3148
      5  C3         0.8910   -1.8220    0.0870 C.2     1  UNL1        0.0147
      6  C4        -0.4850   -1.4890   -0.3260 C.3     1  UNL1        0.0359
      7  C5        -0.3380   -0.2720   -1.1270 C.2     1  UNL1        0.1407
      8  C6        -1.3660    0.5390   -1.8050 C.3     1  UNL1        0.0541
      9  C7        -2.3980    1.0900   -0.9040 C.ar    1  UNL1        0.0726
     10  N2        -2.2160    2.3460   -0.3950 N.ar    1  UNL1       -0.1752
     11  N3        -3.0480    2.9000    0.4570 N.ar    1  UNL1       -0.2427
     12  C8        -4.1480    2.2010    0.8610 C.ar    1  UNL1        0.2682
     13  O2        -4.9060    2.7810    1.6760 O.2     1  UNL1       -0.2661
     14  C9        -4.3910    0.9410    0.3910 C.ar    1  UNL1        0.0232
     15  C10       -3.4940    0.3880   -0.5070 C.ar    1  UNL1       -0.0157
     16  C11       -3.8340   -0.9430   -1.0110 C.3     1  UNL1       -0.0255
     17  C12       -4.2490   -1.8740    0.1180 C.3     1  UNL1       -0.0487
     18  C13       -5.3660   -1.2950    0.9330 C.3     1  UNL1       -0.0486
     19  C14       -5.5520    0.1800    0.8190 C.3     1  UNL1       -0.0222
     20  N4         0.9310    0.0220   -1.1520 N.2     1  UNL1       -0.0504
     21  C15        5.1750    0.4450    0.4930 C.ar    1  UNL1        0.0616
     22  C16        6.0460   -0.5620    0.1750 C.ar    1  UNL1       -0.0474
     23  C17        7.4170   -0.4490    0.3280 C.ar    1  UNL1       -0.0610
     24  C18        7.9240    0.7440    0.8280 C.ar    1  UNL1       -0.0617
     25  C19        7.0770    1.7780    1.1580 C.ar    1  UNL1       -0.0610
     26  C20        5.7190    1.6230    0.9900 C.ar    1  UNL1       -0.0474
     27 H           3.6773   -1.5702   -0.6069 H       1  UNL1        0.3016
     28 H           1.1742   -2.6260    0.6686 H       1  UNL1        0.0657
     29 H          -1.1038   -1.3082    0.5280 H       1  UNL1        0.0392
     30 H          -0.9517   -2.2830   -0.8707 H       1  UNL1        0.0392
     31 H          -1.8513   -0.0762   -2.5336 H       1  UNL1        0.0411
     32 H          -0.8592    1.3760   -2.2381 H       1  UNL1        0.0411
     33 H          -2.8802    3.8076    0.7996 H       1  UNL1        0.1921
     34 H          -2.9806   -1.3560   -1.5070 H       1  UNL1        0.0314
     35 H          -4.6568   -0.8469   -1.6882 H       1  UNL1        0.0314
     36 H          -3.4063   -2.0429    0.7554 H       1  UNL1        0.0268
     37 H          -4.5926   -2.7902   -0.3149 H       1  UNL1        0.0268
     38 H          -5.1760   -1.5240    1.9608 H       1  UNL1        0.0269
     39 H          -6.2640   -1.7328    0.5499 H       1  UNL1        0.0269
     40 H          -6.3366    0.3566    0.1132 H       1  UNL1        0.0315
     41 H          -5.7674    0.5192    1.8107 H       1  UNL1        0.0315
     42 H           5.6630   -1.4457   -0.1957 H       1  UNL1        0.0626
     43 H           8.0449   -1.2289    0.0778 H       1  UNL1        0.0618
     44 H           8.9423    0.8558    0.9529 H       1  UNL1        0.0618
     45 H           7.4571    2.6630    1.5286 H       1  UNL1        0.0618
     46 H           5.0893    2.4016    1.2396 H       1  UNL1        0.0626
@<TRIPOS>BOND
     1     1     2    2
     2     2     3   am
     3     2    21    1
     4     3     4    1
     5     4     5    2
     6     4    20    1
     7     5     6    1
     8     6     7    1
     9     7     8    1
    10     7    20    2
    11     8     9    1
    12     9    10   ar
    13     9    15   ar
    14    10    11   ar
    15    11    12   ar
    16    12    13    2
    17    12    14   ar
    18    14    15   ar
    19    14    19    1
    20    15    16    1
    21    16    17    1
    22    17    18    1
    23    18    19    1
    24    21    22   ar
    25    21    26   ar
    26    22    23   ar
    27    23    24   ar
    28    24    25   ar
    29    25    26   ar
    30     3    27    1
    31     5    28    1
    32     6    29    1
    33     6    30    1
    34     8    31    1
    35     8    32    1
    36    11    33    1
    37    16    34    1
    38    16    35    1
    39    17    36    1
    40    17    37    1
    41    18    38    1
    42    18    39    1
    43    19    40    1
    44    19    41    1
    45    22    42    1
    46    23    43    1
    47    24    44    1
    48    25    45    1
    49    26    46    1
@<TRIPOS>MOLECULE
../data/bude_mols_rdkit_confs2/molecule_70.pdb
 46 49 0 0 0
SMALL
GASTEIGER

@<TRIPOS>ATOM
      1  O1         3.4660   -0.1310    1.7600 O.2     1  UNL1       -0.2418
      2  C1         3.8770    0.2220    0.6140 C.2     1  UNL1        0.3328
      3  N1         2.9430    0.5220   -0.3910 N.am    1  UNL1       -0.1668
      4  C2         1.5300    0.4280   -0.1070 C.2     1  UNL1        0.3148
      5  C3         0.6830    1.4290   -0.1980 C.2     1  UNL1        0.0147
      6  C4        -0.6530    0.9120    0.1760 C.3     1  UNL1        0.0359
      7  C5        -0.4240   -0.5010    0.4820 C.2     1  UNL1        0.1407
      8  C6        -1.3980   -1.5220    0.9130 C.3     1  UNL1        0.0541
      9  C7        -2.4670   -1.6650   -0.0680 C.ar    1  UNL1        0.0726
     10  N2        -2.3660   -2.5840   -1.0500 N.ar    1  UNL1       -0.1752
     11  N3        -3.2520   -2.7670   -2.0080 N.ar    1  UNL1       -0.2427
     12  C8        -4.3470   -1.9860   -2.0230 C.ar    1  UNL1        0.2682
     13  O2        -5.2150   -2.1290   -2.9220 O.2     1  UNL1       -0.2661
     14  C9        -4.4940   -1.0330   -1.0390 C.ar    1  UNL1        0.0232
     15  C10       -3.5620   -0.8460   -0.0360 C.ar    1  UNL1       -0.0157
     16  C11       -3.8590    0.1670    1.0000 C.3     1  UNL1       -0.0255
     17  C12       -4.2480    1.4540    0.3120 C.3     1  UNL1       -0.0487
     18  C13       -5.1150    1.2830   -0.8910 C.3     1  UNL1       -0.0486
     19  C14       -5.6820   -0.1250   -0.9890 C.3     1  UNL1       -0.0222
     20  N4         0.8560   -0.7250    0.3020 N.2     1  UNL1       -0.0504
     21  C15        5.3240    0.2910    0.4200 C.ar    1  UNL1        0.0616
     22  C16        5.8830    0.7320   -0.7610 C.ar    1  UNL1       -0.0474
     23  C17        7.2680    0.7950   -0.9370 C.ar    1  UNL1       -0.0610
     24  C18        8.1240    0.4150    0.0730 C.ar    1  UNL1       -0.0617
     25  C19        7.5650   -0.0300    1.2640 C.ar    1  UNL1       -0.0610
     26  C20        6.2020   -0.0900    1.4310 C.ar    1  UNL1       -0.0474
     27 H           3.2502    0.7953   -1.2855 H       1  UNL1        0.3016
     28 H           0.9077    2.3965   -0.4783 H       1  UNL1        0.0657
     29 H          -1.3407    1.0167   -0.6370 H       1  UNL1        0.0392
     30 H          -1.0800    1.4438    1.0004 H       1  UNL1        0.0392
     31 H          -1.8202   -1.2298    1.8517 H       1  UNL1        0.0411
     32 H          -0.8920   -2.4600    1.0078 H       1  UNL1        0.0411
     33 H          -3.1159   -3.4582   -2.6957 H       1  UNL1        0.1921
     34 H          -2.9920    0.3290    1.6058 H       1  UNL1        0.0314
     35 H          -4.6584   -0.1711    1.6257 H       1  UNL1        0.0314
     36 H          -3.3517    1.9532    0.0082 H       1  UNL1        0.0268
     37 H          -4.8227    2.0128    1.0207 H       1  UNL1        0.0268
     38 H          -4.5339    1.4832   -1.7669 H       1  UNL1        0.0269
     39 H          -5.9355    1.9647   -0.8068 H       1  UNL1        0.0269
     40 H          -6.2851   -0.3454   -0.1331 H       1  UNL1        0.0315
     41 H          -6.3068   -0.2418   -1.8497 H       1  UNL1        0.0315
     42 H           5.2636    1.0226   -1.5336 H       1  UNL1        0.0626
     43 H           7.6537    1.1300   -1.8337 H       1  UNL1        0.0618
     44 H           9.1475    0.4595   -0.0512 H       1  UNL1        0.0618
     45 H           8.1838   -0.3207    2.0371 H       1  UNL1        0.0618
     46 H           5.8197   -0.4261    2.3287 H       1  UNL1        0.0626
@<TRIPOS>BOND
     1     1     2    2
     2     2     3   am
     3     2    21    1
     4     3     4    1
     5     4     5    2
     6     4    20    1
     7     5     6    1
     8     6     7    1
     9     7     8    1
    10     7    20    2
    11     8     9    1
    12     9    10   ar
    13     9    15   ar
    14    10    11   ar
    15    11    12   ar
    16    12    13    2
    17    12    14   ar
    18    14    15   ar
    19    14    19    1
    20    15    16    1
    21    16    17    1
    22    17    18    1
    23    18    19    1
    24    21    22   ar
    25    21    26   ar
    26    22    23   ar
    27    23    24   ar
    28    24    25   ar
    29    25    26   ar
    30     3    27    1
    31     5    28    1
    32     6    29    1
    33     6    30    1
    34     8    31    1
    35     8    32    1
    36    11    33    1
    37    16    34    1
    38    16    35    1
    39    17    36    1
    40    17    37    1
    41    18    38    1
    42    18    39    1
    43    19    40    1
    44    19    41    1
    45    22    42    1
    46    23    43    1
    47    24    44    1
    48    25    45    1
    49    26    46    1
@<TRIPOS>MOLECULE
../data/bude_mols_rdkit_confs2/molecule_70.pdb
 46 49 0 0 0
SMALL
GASTEIGER

@<TRIPOS>ATOM
      1  O1         3.9260   -1.4640   -0.0080 O.2     1  UNL1       -0.2418
      2  C1         3.8390   -0.2290    0.2150 C.2     1  UNL1        0.3328
      3  N1         2.6270    0.2790    0.7100 N.am    1  UNL1       -0.1668
      4  C2         1.4480   -0.4880    0.9860 C.2     1  UNL1        0.3148
      5  C3         1.2630   -1.7700    0.8260 C.2     1  UNL1        0.0147
      6  C4        -0.1120   -2.1050    1.2470 C.3     1  UNL1        0.0359
      7  C5        -0.6660   -0.8040    1.6690 C.2     1  UNL1        0.1407
      8  C6        -2.0630   -0.6820    2.1840 C.3     1  UNL1        0.0541
      9  C7        -3.0130   -1.1310    1.1460 C.ar    1  UNL1        0.0726
     10  N2        -3.5530   -2.3610    1.2420 N.ar    1  UNL1       -0.1752
     11  N3        -4.4080   -2.8720    0.3720 N.ar    1  UNL1       -0.2427
     12  C8        -4.7640   -2.1180   -0.6780 C.ar    1  UNL1        0.2682
     13  O2        -5.5700   -2.5460   -1.5360 O.2     1  UNL1       -0.2661
     14  C9        -4.2460   -0.8580   -0.8270 C.ar    1  UNL1        0.0232
     15  C10       -3.3540   -0.3040    0.0650 C.ar    1  UNL1       -0.0157
     16  C11       -2.7700    1.0480   -0.0520 C.3     1  UNL1       -0.0255
     17  C12       -3.3770    1.8330   -1.1530 C.3     1  UNL1       -0.0487
     18  C13       -4.7700    1.4240   -1.5610 C.3     1  UNL1       -0.0486
     19  C14       -4.6690   -0.0280   -1.9960 C.3     1  UNL1       -0.0222
     20  N4         0.2260    0.0840    1.5140 N.2     1  UNL1       -0.0504
     21  C15        5.0150    0.5930   -0.0580 C.ar    1  UNL1        0.0616
     22  C16        6.2320   -0.0170   -0.3430 C.ar    1  UNL1       -0.0474
     23  C17        7.3670    0.7040   -0.6180 C.ar    1  UNL1       -0.0610
     24  C18        7.3410    2.1030   -0.6210 C.ar    1  UNL1       -0.0617
     25  C19        6.1370    2.6990   -0.3380 C.ar    1  UNL1       -0.0610
     26  C20        4.9840    1.9640   -0.0590 C.ar    1  UNL1       -0.0474
     27 H           2.5833    1.2473    0.8827 H       1  UNL1        0.3016
     28 H           1.9616   -2.4384    0.4652 H       1  UNL1        0.0657
     29 H          -0.1049   -2.8002    2.0603 H       1  UNL1        0.0392
     30 H          -0.6843   -2.5718    0.4727 H       1  UNL1        0.0392
     31 H          -2.2633    0.3393    2.4326 H       1  UNL1        0.0411
     32 H          -2.1752   -1.2909    3.0567 H       1  UNL1        0.0411
     33 H          -4.7721   -3.7788    0.4917 H       1  UNL1        0.1921
     34 H          -1.7201    0.9540   -0.2355 H       1  UNL1        0.0314
     35 H          -2.9634    1.5670    0.8635 H       1  UNL1        0.0314
     36 H          -2.7434    1.7402   -2.0102 H       1  UNL1        0.0268
     37 H          -3.4648    2.8329   -0.7825 H       1  UNL1        0.0268
     38 H          -5.1137    2.0320   -2.3716 H       1  UNL1        0.0269
     39 H          -5.4655    1.5450   -0.7569 H       1  UNL1        0.0269
     40 H          -5.6218   -0.3640   -2.3485 H       1  UNL1        0.0315
     41 H          -3.9507   -0.1203   -2.7836 H       1  UNL1        0.0315
     42 H           6.2834   -1.0477   -0.3479 H       1  UNL1        0.0626
     43 H           8.2487    0.2092   -0.8247 H       1  UNL1        0.0618
     44 H           8.1855    2.6596   -0.8259 H       1  UNL1        0.0618
     45 H           6.0826    3.7295   -0.3313 H       1  UNL1        0.0618
     46 H           4.1009    2.4562    0.1482 H       1  UNL1        0.0626
@<TRIPOS>BOND
     1     1     2    2
     2     2     3   am
     3     2    21    1
     4     3     4    1
     5     4     5    2
     6     4    20    1
     7     5     6    1
     8     6     7    1
     9     7     8    1
    10     7    20    2
    11     8     9    1
    12     9    10   ar
    13     9    15   ar
    14    10    11   ar
    15    11    12   ar
    16    12    13    2
    17    12    14   ar
    18    14    15   ar
    19    14    19    1
    20    15    16    1
    21    16    17    1
    22    17    18    1
    23    18    19    1
    24    21    22   ar
    25    21    26   ar
    26    22    23   ar
    27    23    24   ar
    28    24    25   ar
    29    25    26   ar
    30     3    27    1
    31     5    28    1
    32     6    29    1
    33     6    30    1
    34     8    31    1
    35     8    32    1
    36    11    33    1
    37    16    34    1
    38    16    35    1
    39    17    36    1
    40    17    37    1
    41    18    38    1
    42    18    39    1
    43    19    40    1
    44    19    41    1
    45    22    42    1
    46    23    43    1
    47    24    44    1
    48    25    45    1
    49    26    46    1
@<TRIPOS>MOLECULE
../data/bude_mols_rdkit_confs2/molecule_70.pdb
 46 49 0 0 0
SMALL
GASTEIGER

@<TRIPOS>ATOM
      1  O1         3.9520    1.9790    0.2370 O.2     1  UNL1       -0.2418
      2  C1         4.3320    0.7820    0.1400 C.2     1  UNL1        0.3328
      3  N1         3.3560   -0.2200    0.2910 N.am    1  UNL1       -0.1668
      4  C2         1.9780   -0.0260    0.5470 C.2     1  UNL1        0.3148
      5  C3         1.4310   -0.5440    1.6650 C.2     1  UNL1        0.0147
      6  C4        -0.0120   -0.2070    1.6970 C.3     1  UNL1        0.0359
      7  C5        -0.1690    0.5690    0.4310 C.2     1  UNL1        0.1407
      8  C6        -1.5180    1.1100    0.0620 C.3     1  UNL1        0.0541
      9  C7        -2.4130   -0.0900   -0.0820 C.ar    1  UNL1        0.0726
     10  N2        -1.9300   -1.3400   -0.2190 N.ar    1  UNL1       -0.1752
     11  N3        -2.7120   -2.4010   -0.3510 N.ar    1  UNL1       -0.2427
     12  C8        -4.0620   -2.2990   -0.3580 C.ar    1  UNL1        0.2682
     13  O2        -4.7470   -3.3410   -0.4880 O.2     1  UNL1       -0.2661
     14  C9        -4.6240   -1.0580   -0.2220 C.ar    1  UNL1        0.0232
     15  C10       -3.7870    0.0230   -0.0860 C.ar    1  UNL1       -0.0157
     16  C11       -4.4430    1.3550    0.0640 C.3     1  UNL1       -0.0255
     17  C12       -5.5490    1.4060   -0.9710 C.3     1  UNL1       -0.0487
     18  C13       -6.5860    0.3570   -0.7900 C.3     1  UNL1       -0.0486
     19  C14       -6.1020   -0.9450   -0.2260 C.3     1  UNL1       -0.0222
     20  N4         0.9580    0.6380   -0.1630 N.2     1  UNL1       -0.0504
     21  C15        5.7410    0.4670   -0.1210 C.ar    1  UNL1        0.0616
     22  C16        6.2760   -0.7890   -0.0550 C.ar    1  UNL1       -0.0474
     23  C17        7.5950   -1.0930   -0.3030 C.ar    1  UNL1       -0.0610
     24  C18        8.4430   -0.0670   -0.6430 C.ar    1  UNL1       -0.0617
     25  C19        7.9560    1.2230   -0.7250 C.ar    1  UNL1       -0.0610
     26  C20        6.6040    1.4770   -0.4610 C.ar    1  UNL1       -0.0474
     27 H           3.6634   -1.1518    0.2103 H       1  UNL1        0.3016
     28 H           1.9356   -1.0875    2.3827 H       1  UNL1        0.0657
     29 H          -0.2547    0.3884    2.5522 H       1  UNL1        0.0392
     30 H          -0.6558   -1.0587    1.7674 H       1  UNL1        0.0392
     31 H          -1.4642    1.6481   -0.8613 H       1  UNL1        0.0411
     32 H          -1.8860    1.7904    0.8013 H       1  UNL1        0.0411
     33 H          -2.2994   -3.2897   -0.4468 H       1  UNL1        0.1921
     34 H          -3.7352    2.1380   -0.1118 H       1  UNL1        0.0314
     35 H          -4.8303    1.4876    1.0526 H       1  UNL1        0.0314
     36 H          -5.1110    1.2843   -1.9396 H       1  UNL1        0.0268
     37 H          -6.0379    2.3512   -0.8596 H       1  UNL1        0.0268
     38 H          -7.0235    0.1587   -1.7461 H       1  UNL1        0.0269
     39 H          -7.2745    0.7485   -0.0706 H       1  UNL1        0.0269
     40 H          -6.4539   -1.0329    0.7807 H       1  UNL1        0.0315
     41 H          -6.4821   -1.7265   -0.8503 H       1  UNL1        0.0315
     42 H           5.6453   -1.5653    0.1991 H       1  UNL1        0.0626
     43 H           7.9375   -2.0642   -0.2355 H       1  UNL1        0.0618
     44 H           9.4384   -0.2590   -0.8361 H       1  UNL1        0.0618
     45 H           8.5873    1.9985   -0.9804 H       1  UNL1        0.0618
     46 H           6.2500    2.4444   -0.5237 H       1  UNL1        0.0626
@<TRIPOS>BOND
     1     1     2    2
     2     2     3   am
     3     2    21    1
     4     3     4    1
     5     4     5    2
     6     4    20    1
     7     5     6    1
     8     6     7    1
     9     7     8    1
    10     7    20    2
    11     8     9    1
    12     9    10   ar
    13     9    15   ar
    14    10    11   ar
    15    11    12   ar
    16    12    13    2
    17    12    14   ar
    18    14    15   ar
    19    14    19    1
    20    15    16    1
    21    16    17    1
    22    17    18    1
    23    18    19    1
    24    21    22   ar
    25    21    26   ar
    26    22    23   ar
    27    23    24   ar
    28    24    25   ar
    29    25    26   ar
    30     3    27    1
    31     5    28    1
    32     6    29    1
    33     6    30    1
    34     8    31    1
    35     8    32    1
    36    11    33    1
    37    16    34    1
    38    16    35    1
    39    17    36    1
    40    17    37    1
    41    18    38    1
    42    18    39    1
    43    19    40    1
    44    19    41    1
    45    22    42    1
    46    23    43    1
    47    24    44    1
    48    25    45    1
    49    26    46    1
@<TRIPOS>MOLECULE
../data/bude_mols_rdkit_confs2/molecule_70.pdb
 46 49 0 0 0
SMALL
GASTEIGER

@<TRIPOS>ATOM
      1  O1        -4.3740   -1.9460    0.5470 O.2     1  UNL1       -0.2418
      2  C1        -4.4230   -0.7600    0.1590 C.2     1  UNL1        0.3328
      3  N1        -3.2530    0.0120    0.2140 N.am    1  UNL1       -0.1668
      4  C2        -1.9850   -0.4230    0.6780 C.2     1  UNL1        0.3148
      5  C3        -1.6590   -1.6050    1.1420 C.2     1  UNL1        0.0147
      6  C4        -0.2220   -1.5560    1.4930 C.3     1  UNL1        0.0359
      7  C5         0.1870   -0.1960    1.1570 C.2     1  UNL1        0.1407
      8  C6         1.5260    0.4530    1.2880 C.3     1  UNL1        0.0541
      9  C7         2.5500   -0.2500    0.4950 C.ar    1  UNL1        0.0726
     10  N2         2.2560   -1.3220   -0.2610 N.ar    1  UNL1       -0.1752
     11  N3         3.1300   -1.9780   -0.9810 N.ar    1  UNL1       -0.2427
     12  C8         4.4150   -1.5740   -0.9820 C.ar    1  UNL1        0.2682
     13  O2         5.2650   -2.1970   -1.6700 O.2     1  UNL1       -0.2661
     14  C9         4.7760   -0.5000   -0.2400 C.ar    1  UNL1        0.0232
     15  C10        3.8500    0.2020    0.5270 C.ar    1  UNL1       -0.0157
     16  C11        4.2580    1.3780    1.3380 C.3     1  UNL1       -0.0255
     17  C12        5.3200    2.2100    0.6630 C.3     1  UNL1       -0.0487
     18  C13        6.0730    1.5070   -0.4110 C.3     1  UNL1       -0.0486
     19  C14        6.1710    0.0050   -0.1900 C.3     1  UNL1       -0.0222
     20  N4        -0.8250    0.4300    0.6980 N.2     1  UNL1       -0.0504
     21  C15       -5.6960   -0.2500   -0.3290 C.ar    1  UNL1        0.0616
     22  C16       -6.7740   -1.1160   -0.4880 C.ar    1  UNL1       -0.0474
     23  C17       -8.0090   -0.7280   -0.9380 C.ar    1  UNL1       -0.0610
     24  C18       -8.1950    0.6010   -1.2530 C.ar    1  UNL1       -0.0617
     25  C19       -7.1660    1.5210   -1.1190 C.ar    1  UNL1       -0.0610
     26  C20       -5.9350    1.0620   -0.6570 C.ar    1  UNL1       -0.0474
     27 H          -3.3180    0.9432   -0.0988 H       1  UNL1        0.3016
     28 H          -2.2869   -2.4177    1.2435 H       1  UNL1        0.0657
     29 H           0.3322   -2.2704    0.9208 H       1  UNL1        0.0392
     30 H          -0.0448   -1.7931    2.5212 H       1  UNL1        0.0392
     31 H           1.8172    0.4434    2.3176 H       1  UNL1        0.0411
     32 H           1.4491    1.4554    0.9217 H       1  UNL1        0.0411
     33 H           2.8519   -2.7569   -1.5151 H       1  UNL1        0.1921
     34 H           4.6392    1.0315    2.2759 H       1  UNL1        0.0314
     35 H           3.3950    1.9974    1.4664 H       1  UNL1        0.0314
     36 H           6.0197    2.5256    1.4085 H       1  UNL1        0.0268
     37 H           4.8108    3.0242    0.1911 H       1  UNL1        0.0268
     38 H           7.0634    1.9100   -0.4516 H       1  UNL1        0.0269
     39 H           5.5390    1.6595   -1.3256 H       1  UNL1        0.0269
     40 H           6.7596   -0.4479   -0.9603 H       1  UNL1        0.0315
     41 H           6.6420   -0.2272    0.7423 H       1  UNL1        0.0315
     42 H          -6.6348   -2.1111   -0.2526 H       1  UNL1        0.0626
     43 H          -8.7767   -1.4104   -1.0380 H       1  UNL1        0.0618
     44 H          -9.1162    0.9169   -1.5946 H       1  UNL1        0.0618
     45 H          -7.3082    2.5157   -1.3545 H       1  UNL1        0.0618
     46 H          -5.1645    1.7411   -0.5562 H       1  UNL1        0.0626
@<TRIPOS>BOND
     1     1     2    2
     2     2     3   am
     3     2    21    1
     4     3     4    1
     5     4     5    2
     6     4    20    1
     7     5     6    1
     8     6     7    1
     9     7     8    1
    10     7    20    2
    11     8     9    1
    12     9    10   ar
    13     9    15   ar
    14    10    11   ar
    15    11    12   ar
    16    12    13    2
    17    12    14   ar
    18    14    15   ar
    19    14    19    1
    20    15    16    1
    21    16    17    1
    22    17    18    1
    23    18    19    1
    24    21    22   ar
    25    21    26   ar
    26    22    23   ar
    27    23    24   ar
    28    24    25   ar
    29    25    26   ar
    30     3    27    1
    31     5    28    1
    32     6    29    1
    33     6    30    1
    34     8    31    1
    35     8    32    1
    36    11    33    1
    37    16    34    1
    38    16    35    1
    39    17    36    1
    40    17    37    1
    41    18    38    1
    42    18    39    1
    43    19    40    1
    44    19    41    1
    45    22    42    1
    46    23    43    1
    47    24    44    1
    48    25    45    1
    49    26    46    1
@<TRIPOS>MOLECULE
../data/bude_mols_rdkit_confs2/molecule_70.pdb
 46 49 0 0 0
SMALL
GASTEIGER

@<TRIPOS>ATOM
      1  O1         3.3710   -0.4190    2.3050 O.2     1  UNL1       -0.2418
      2  C1         3.8930   -0.0580    1.2080 C.2     1  UNL1        0.3328
      3  N1         3.0780    0.4430    0.1700 N.am    1  UNL1       -0.1668
      4  C2         1.6680    0.5900    0.2450 C.2     1  UNL1        0.3148
      5  C3         0.8850    0.2990    1.2590 C.2     1  UNL1        0.0147
      6  C4        -0.5360    0.6190    0.8820 C.3     1  UNL1        0.0359
      7  C5        -0.3920    1.1180   -0.4800 C.2     1  UNL1        0.1407
      8  C6        -1.4530    1.5870   -1.3870 C.3     1  UNL1        0.0541
      9  C7        -2.4560    0.5350   -1.6440 C.ar    1  UNL1        0.0726
     10  N2        -2.2370   -0.2520   -2.7290 N.ar    1  UNL1       -0.1752
     11  N3        -3.0100   -1.2540   -3.0440 N.ar    1  UNL1       -0.2427
     12  C8        -4.0850   -1.5520   -2.2800 C.ar    1  UNL1        0.2682
     13  O2        -4.8290   -2.5370   -2.6040 O.2     1  UNL1       -0.2661
     14  C9        -4.3960   -0.8180   -1.1630 C.ar    1  UNL1        0.0232
     15  C10       -3.5430    0.2490   -0.8610 C.ar    1  UNL1       -0.0157
     16  C11       -3.8630    1.1000    0.2980 C.3     1  UNL1       -0.0255
     17  C12       -4.3270    0.1260    1.3920 C.3     1  UNL1       -0.0487
     18  C13       -5.6630   -0.4530    0.9260 C.3     1  UNL1       -0.0486
     19  C14       -5.5790   -1.1840   -0.3640 C.3     1  UNL1       -0.0222
     20  N4         0.8680    1.0830   -0.7940 N.2     1  UNL1       -0.0504
     21  C15        5.3420   -0.1800    1.0630 C.ar    1  UNL1        0.0616
     22  C16        6.0760   -1.0480    1.8430 C.ar    1  UNL1       -0.0474
     23  C17        7.4390   -1.1310    1.6820 C.ar    1  UNL1       -0.0610
     24  C18        8.1160   -0.3570    0.7460 C.ar    1  UNL1       -0.0617
     25  C19        7.3840    0.5140   -0.0370 C.ar    1  UNL1       -0.0610
     26  C20        6.0030    0.5830    0.1410 C.ar    1  UNL1       -0.0474
     27 H           3.5202    0.7103   -0.6680 H       1  UNL1        0.3016
     28 H           1.1939   -0.0859    2.1653 H       1  UNL1        0.0657
     29 H          -0.9489    1.3665    1.5268 H       1  UNL1        0.0392
     30 H          -1.1993   -0.2166    0.9639 H       1  UNL1        0.0392
     31 H          -1.0106    1.8789   -2.3165 H       1  UNL1        0.0411
     32 H          -1.9483    2.4136   -0.9218 H       1  UNL1        0.0411
     33 H          -2.8100   -1.7957   -3.8414 H       1  UNL1        0.1921
     34 H          -4.6433    1.7901    0.0536 H       1  UNL1        0.0314
     35 H          -3.0232    1.6846    0.6108 H       1  UNL1        0.0314
     36 H          -4.4533    0.6454    2.3189 H       1  UNL1        0.0268
     37 H          -3.6056   -0.6484    1.5494 H       1  UNL1        0.0268
     38 H          -6.3592    0.3517    0.8136 H       1  UNL1        0.0269
     39 H          -5.9729   -1.1602    1.6667 H       1  UNL1        0.0269
     40 H          -5.5390   -2.2333   -0.1583 H       1  UNL1        0.0315
     41 H          -6.4434   -0.9192   -0.9363 H       1  UNL1        0.0315
     42 H           5.6027   -1.6352    2.5474 H       1  UNL1        0.0626
     43 H           7.9747   -1.7863    2.2725 H       1  UNL1        0.0618
     44 H           9.1397   -0.4315    0.6391 H       1  UNL1        0.0618
     45 H           7.8518    1.1043   -0.7425 H       1  UNL1        0.0618
     46 H           5.4589    1.2349   -0.4456 H       1  UNL1        0.0626
@<TRIPOS>BOND
     1     1     2    2
     2     2     3   am
     3     2    21    1
     4     3     4    1
     5     4     5    2
     6     4    20    1
     7     5     6    1
     8     6     7    1
     9     7     8    1
    10     7    20    2
    11     8     9    1
    12     9    10   ar
    13     9    15   ar
    14    10    11   ar
    15    11    12   ar
    16    12    13    2
    17    12    14   ar
    18    14    15   ar
    19    14    19    1
    20    15    16    1
    21    16    17    1
    22    17    18    1
    23    18    19    1
    24    21    22   ar
    25    21    26   ar
    26    22    23   ar
    27    23    24   ar
    28    24    25   ar
    29    25    26   ar
    30     3    27    1
    31     5    28    1
    32     6    29    1
    33     6    30    1
    34     8    31    1
    35     8    32    1
    36    11    33    1
    37    16    34    1
    38    16    35    1
    39    17    36    1
    40    17    37    1
    41    18    38    1
    42    18    39    1
    43    19    40    1
    44    19    41    1
    45    22    42    1
    46    23    43    1
    47    24    44    1
    48    25    45    1
    49    26    46    1
@<TRIPOS>MOLECULE
../data/bude_mols_rdkit_confs2/molecule_70.pdb
 46 49 0 0 0
SMALL
GASTEIGER

@<TRIPOS>ATOM
      1  O1         3.1520   -1.3690   -0.3890 O.2     1  UNL1       -0.2418
      2  C1         3.8080   -0.4080    0.1190 C.2     1  UNL1        0.3328
      3  N1         3.1050    0.7570    0.4410 N.am    1  UNL1       -0.1668
      4  C2         1.6830    0.8880    0.2170 C.2     1  UNL1        0.3148
      5  C3         0.8510    1.1250    1.2100 C.2     1  UNL1        0.0147
      6  C4        -0.5210    1.2000    0.6260 C.3     1  UNL1        0.0359
      7  C5        -0.3160    0.9700   -0.8060 C.2     1  UNL1        0.1407
      8  C6        -1.3340    0.9220   -1.9010 C.3     1  UNL1        0.0541
      9  C7        -2.3350   -0.1170   -1.6760 C.ar    1  UNL1        0.0726
     10  N2        -2.1710   -1.3750   -2.1880 N.ar    1  UNL1       -0.1752
     11  N3        -3.0240   -2.3490   -1.9640 N.ar    1  UNL1       -0.2427
     12  C8        -4.1320   -2.2040   -1.2160 C.ar    1  UNL1        0.2682
     13  O2        -4.9130   -3.1900   -1.0410 O.2     1  UNL1       -0.2661
     14  C9        -4.3590   -0.9610   -0.6700 C.ar    1  UNL1        0.0232
     15  C10       -3.4460    0.0780   -0.9120 C.ar    1  UNL1       -0.0157
     16  C11       -3.7840    1.3840   -0.3440 C.3     1  UNL1       -0.0255
     17  C12       -4.2460    1.1350    1.0870 C.3     1  UNL1       -0.0487
     18  C13       -5.5750    0.4250    1.0110 C.3     1  UNL1       -0.0486
     19  C14       -5.5740   -0.7960    0.1500 C.3     1  UNL1       -0.0222
     20  N4         0.9750    0.7970   -0.9840 N.2     1  UNL1       -0.0504
     21  C15        5.2340   -0.5040    0.3600 C.ar    1  UNL1        0.0616
     22  C16        5.8870   -1.6410   -0.0690 C.ar    1  UNL1       -0.0474
     23  C17        7.2610   -1.7670    0.1500 C.ar    1  UNL1       -0.0610
     24  C18        7.9670   -0.7760    0.7840 C.ar    1  UNL1       -0.0617
     25  C19        7.3220    0.3560    1.2120 C.ar    1  UNL1       -0.0610
     26  C20        5.9380    0.4800    0.9910 C.ar    1  UNL1       -0.0474
     27 H           3.5957    1.5146    0.8341 H       1  UNL1        0.3016
     28 H           1.1005    1.2377    2.2050 H       1  UNL1        0.0657
     29 H          -0.9540    2.1633    0.7973 H       1  UNL1        0.0392
     30 H          -1.1914    0.4897    1.0630 H       1  UNL1        0.0392
     31 H          -0.8354    0.7258   -2.8271 H       1  UNL1        0.0411
     32 H          -1.8381    1.8655   -1.9235 H       1  UNL1        0.0411
     33 H          -2.8426   -3.2300   -2.3643 H       1  UNL1        0.1921
     34 H          -4.5688    1.8402   -0.9104 H       1  UNL1        0.0314
     35 H          -2.9409    2.0425   -0.3664 H       1  UNL1        0.0314
     36 H          -4.3568    2.0656    1.6034 H       1  UNL1        0.0268
     37 H          -3.5302    0.5441    1.6193 H       1  UNL1        0.0268
     38 H          -6.2983    1.1097    0.6199 H       1  UNL1        0.0269
     39 H          -5.8040    0.0984    2.0039 H       1  UNL1        0.0269
     40 H          -5.6691   -1.6528    0.7838 H       1  UNL1        0.0315
     41 H          -6.3914   -0.6898   -0.5323 H       1  UNL1        0.0315
     42 H           5.3651   -2.3918   -0.5475 H       1  UNL1        0.0626
     43 H           7.7516   -2.6169   -0.1694 H       1  UNL1        0.0618
     44 H           8.9818   -0.8823    0.9385 H       1  UNL1        0.0618
     45 H           7.8447    1.1068    1.6897 H       1  UNL1        0.0618
     46 H           5.4471    1.3293    1.3115 H       1  UNL1        0.0626
@<TRIPOS>BOND
     1     1     2    2
     2     2     3   am
     3     2    21    1
     4     3     4    1
     5     4     5    2
     6     4    20    1
     7     5     6    1
     8     6     7    1
     9     7     8    1
    10     7    20    2
    11     8     9    1
    12     9    10   ar
    13     9    15   ar
    14    10    11   ar
    15    11    12   ar
    16    12    13    2
    17    12    14   ar
    18    14    15   ar
    19    14    19    1
    20    15    16    1
    21    16    17    1
    22    17    18    1
    23    18    19    1
    24    21    22   ar
    25    21    26   ar
    26    22    23   ar
    27    23    24   ar
    28    24    25   ar
    29    25    26   ar
    30     3    27    1
    31     5    28    1
    32     6    29    1
    33     6    30    1
    34     8    31    1
    35     8    32    1
    36    11    33    1
    37    16    34    1
    38    16    35    1
    39    17    36    1
    40    17    37    1
    41    18    38    1
    42    18    39    1
    43    19    40    1
    44    19    41    1
    45    22    42    1
    46    23    43    1
    47    24    44    1
    48    25    45    1
    49    26    46    1
@<TRIPOS>MOLECULE
../data/bude_mols_rdkit_confs2/molecule_70.pdb
 46 49 0 0 0
SMALL
GASTEIGER

@<TRIPOS>ATOM
      1  O1         3.5640   -0.2010   -1.4970 O.2     1  UNL1       -0.2418
      2  C1         3.7500   -0.1490   -0.2370 C.2     1  UNL1        0.3328
      3  N1         2.6780   -0.5950    0.5650 N.am    1  UNL1       -0.1668
      4  C2         1.4500   -1.0800    0.0050 C.2     1  UNL1        0.3148
      5  C3         1.0070   -2.3140    0.2260 C.2     1  UNL1        0.0147
      6  C4        -0.2840   -2.5230   -0.4830 C.3     1  UNL1        0.0359
      7  C5        -0.4730   -1.1890   -1.1310 C.2     1  UNL1        0.1407
      8  C6        -1.6300   -0.8060   -2.0020 C.3     1  UNL1        0.0541
      9  C7        -2.8590   -0.9500   -1.2360 C.ar    1  UNL1        0.0726
     10  N2        -3.6300   -2.0370   -1.4280 N.ar    1  UNL1       -0.1752
     11  N3        -4.7490   -2.2360   -0.7530 N.ar    1  UNL1       -0.2427
     12  C8        -5.1500   -1.3340    0.1600 C.ar    1  UNL1        0.2682
     13  O2        -6.2090   -1.4980    0.8150 O.2     1  UNL1       -0.2661
     14  C9        -4.3970   -0.2050    0.3930 C.ar    1  UNL1        0.0232
     15  C10       -3.2290   -0.0200   -0.3260 C.ar    1  UNL1       -0.0157
     16  C11       -2.4630    1.1850   -0.0690 C.3     1  UNL1       -0.0255
     17  C12       -3.4230    2.3730   -0.1130 C.3     1  UNL1       -0.0487
     18  C13       -4.6690    2.1690    0.6680 C.3     1  UNL1       -0.0486
     19  C14       -4.7550    0.8390    1.3800 C.3     1  UNL1       -0.0222
     20  N4         0.5180   -0.4270   -0.8280 N.2     1  UNL1       -0.0504
     21  C15        5.0240    0.3560    0.2530 C.ar    1  UNL1        0.0616
     22  C16        5.2270    0.4670    1.6060 C.ar    1  UNL1       -0.0474
     23  C17        6.4660    0.9570    2.0350 C.ar    1  UNL1       -0.0610
     24  C18        7.4670    1.3230    1.1710 C.ar    1  UNL1       -0.0617
     25  C19        7.2430    1.2040   -0.1860 C.ar    1  UNL1       -0.0610
     26  C20        6.0320    0.7250   -0.6190 C.ar    1  UNL1       -0.0474
     27 H           2.7766   -0.5724    1.5443 H       1  UNL1        0.3016
     28 H           1.4874   -3.0216    0.8035 H       1  UNL1        0.0657
     29 H          -1.0767   -2.7434    0.2010 H       1  UNL1        0.0392
     30 H          -0.2845   -3.3482   -1.1641 H       1  UNL1        0.0392
     31 H          -1.6628   -1.4460   -2.8589 H       1  UNL1        0.0411
     32 H          -1.5207    0.2071   -2.3284 H       1  UNL1        0.0411
     33 H          -5.2878   -3.0432   -0.9185 H       1  UNL1        0.1921
     34 H          -1.7069    1.3012   -0.8172 H       1  UNL1        0.0314
     35 H          -1.9877    1.1264    0.8878 H       1  UNL1        0.0314
     36 H          -3.6906    2.5523   -1.1334 H       1  UNL1        0.0268
     37 H          -2.9115    3.2021    0.3294 H       1  UNL1        0.0268
     38 H          -5.4992    2.2425   -0.0030 H       1  UNL1        0.0269
     39 H          -4.6762    2.9212    1.4290 H       1  UNL1        0.0269
     40 H          -4.0705    0.8175    2.2021 H       1  UNL1        0.0315
     41 H          -5.7391    0.6765    1.7674 H       1  UNL1        0.0315
     42 H           4.4940    0.1993    2.2813 H       1  UNL1        0.0626
     43 H           6.6345    1.0472    3.0491 H       1  UNL1        0.0618
     44 H           8.3675    1.6794    1.5277 H       1  UNL1        0.0618
     45 H           7.9742    1.4708   -0.8637 H       1  UNL1        0.0618
     46 H           5.8673    0.6368   -1.6339 H       1  UNL1        0.0626
@<TRIPOS>BOND
     1     1     2    2
     2     2     3   am
     3     2    21    1
     4     3     4    1
     5     4     5    2
     6     4    20    1
     7     5     6    1
     8     6     7    1
     9     7     8    1
    10     7    20    2
    11     8     9    1
    12     9    10   ar
    13     9    15   ar
    14    10    11   ar
    15    11    12   ar
    16    12    13    2
    17    12    14   ar
    18    14    15   ar
    19    14    19    1
    20    15    16    1
    21    16    17    1
    22    17    18    1
    23    18    19    1
    24    21    22   ar
    25    21    26   ar
    26    22    23   ar
    27    23    24   ar
    28    24    25   ar
    29    25    26   ar
    30     3    27    1
    31     5    28    1
    32     6    29    1
    33     6    30    1
    34     8    31    1
    35     8    32    1
    36    11    33    1
    37    16    34    1
    38    16    35    1
    39    17    36    1
    40    17    37    1
    41    18    38    1
    42    18    39    1
    43    19    40    1
    44    19    41    1
    45    22    42    1
    46    23    43    1
    47    24    44    1
    48    25    45    1
    49    26    46    1
@<TRIPOS>MOLECULE
../data/bude_mols_rdkit_confs2/molecule_70.pdb
 46 49 0 0 0
SMALL
GASTEIGER

@<TRIPOS>ATOM
      1  O1         3.2540   -0.5020   -1.3180 O.2     1  UNL1       -0.2418
      2  C1         4.0070   -0.1720   -0.3990 C.2     1  UNL1        0.3328
      3  N1         3.4630   -0.0390    0.9180 N.am    1  UNL1       -0.1668
      4  C2         2.0830   -0.2690    1.1720 C.2     1  UNL1        0.3148
      5  C3         1.5400   -1.1440    1.9700 C.2     1  UNL1        0.0147
      6  C4         0.0610   -0.9710    1.8690 C.3     1  UNL1        0.0359
      7  C5        -0.1120    0.1180    0.9110 C.2     1  UNL1        0.1407
      8  C6        -1.3630    0.7430    0.4510 C.3     1  UNL1        0.0541
      9  C7        -2.3210   -0.1870   -0.1800 C.ar    1  UNL1        0.0726
     10  N2        -1.8900   -1.2390   -0.8920 N.ar    1  UNL1       -0.1752
     11  N3        -2.7270   -2.0840   -1.4490 N.ar    1  UNL1       -0.2427
     12  C8        -4.0440   -1.8690   -1.2890 C.ar    1  UNL1        0.2682
     13  O2        -4.8650   -2.6650   -1.8130 O.2     1  UNL1       -0.2661
     14  C9        -4.5580   -0.8260   -0.5830 C.ar    1  UNL1        0.0232
     15  C10       -3.6940    0.0550   -0.0010 C.ar    1  UNL1       -0.0157
     16  C11       -4.0910    1.2310    0.7700 C.3     1  UNL1       -0.0255
     17  C12       -5.5160    1.6580    0.5320 C.3     1  UNL1       -0.0487
     18  C13       -6.2420    0.8740   -0.5100 C.3     1  UNL1       -0.0486
     19  C14       -6.0140   -0.6050   -0.4420 C.3     1  UNL1       -0.0222
     20  N4         1.0500    0.5000    0.5260 N.2     1  UNL1       -0.0504
     21  C15        5.4490    0.0980   -0.5910 C.ar    1  UNL1        0.0616
     22  C16        6.1220   -0.5160   -1.6180 C.ar    1  UNL1       -0.0474
     23  C17        7.4820   -0.2820   -1.8420 C.ar    1  UNL1       -0.0610
     24  C18        8.1770    0.5800   -1.0240 C.ar    1  UNL1       -0.0617
     25  C19        7.4910    1.1960    0.0110 C.ar    1  UNL1       -0.0610
     26  C20        6.1460    0.9630    0.2300 C.ar    1  UNL1       -0.0474
     27 H           4.0552    0.2165    1.6618 H       1  UNL1        0.3016
     28 H           2.0385   -1.8278    2.5606 H       1  UNL1        0.0657
     29 H          -0.3555   -0.7093    2.8192 H       1  UNL1        0.0392
     30 H          -0.4348   -1.8679    1.5613 H       1  UNL1        0.0392
     31 H          -1.1145    1.5006   -0.2626 H       1  UNL1        0.0411
     32 H          -1.8467    1.1296    1.3236 H       1  UNL1        0.0411
     33 H          -2.3990   -2.8530   -1.9689 H       1  UNL1        0.1921
     34 H          -3.4463    2.0426    0.5044 H       1  UNL1        0.0314
     35 H          -4.0117    0.9684    1.8042 H       1  UNL1        0.0314
     36 H          -5.5093    2.6847    0.2307 H       1  UNL1        0.0268
     37 H          -6.0370    1.4893    1.4513 H       1  UNL1        0.0268
     38 H          -5.9220    1.2181   -1.4713 H       1  UNL1        0.0269
     39 H          -7.2864    1.0303   -0.3375 H       1  UNL1        0.0269
     40 H          -6.3540   -0.9862    0.4982 H       1  UNL1        0.0315
     41 H          -6.5532   -1.1101   -1.2159 H       1  UNL1        0.0315
     42 H           5.6127   -1.1647   -2.2384 H       1  UNL1        0.0626
     43 H           7.9653   -0.7558   -2.6211 H       1  UNL1        0.0618
     44 H           9.1811    0.7625   -1.1772 H       1  UNL1        0.0618
     45 H           7.9970    1.8449    0.6338 H       1  UNL1        0.0618
     46 H           5.6616    1.4364    1.0086 H       1  UNL1        0.0626
@<TRIPOS>BOND
     1     1     2    2
     2     2     3   am
     3     2    21    1
     4     3     4    1
     5     4     5    2
     6     4    20    1
     7     5     6    1
     8     6     7    1
     9     7     8    1
    10     7    20    2
    11     8     9    1
    12     9    10   ar
    13     9    15   ar
    14    10    11   ar
    15    11    12   ar
    16    12    13    2
    17    12    14   ar
    18    14    15   ar
    19    14    19    1
    20    15    16    1
    21    16    17    1
    22    17    18    1
    23    18    19    1
    24    21    22   ar
    25    21    26   ar
    26    22    23   ar
    27    23    24   ar
    28    24    25   ar
    29    25    26   ar
    30     3    27    1
    31     5    28    1
    32     6    29    1
    33     6    30    1
    34     8    31    1
    35     8    32    1
    36    11    33    1
    37    16    34    1
    38    16    35    1
    39    17    36    1
    40    17    37    1
    41    18    38    1
    42    18    39    1
    43    19    40    1
    44    19    41    1
    45    22    42    1
    46    23    43    1
    47    24    44    1
    48    25    45    1
    49    26    46    1
@<TRIPOS>MOLECULE
../data/bude_mols_rdkit_confs2/molecule_70.pdb
 46 49 0 0 0
SMALL
GASTEIGER

@<TRIPOS>ATOM
      1  O1         3.7330   -0.2520   -1.8490 O.2     1  UNL1       -0.2418
      2  C1         4.0840   -0.1680   -0.6490 C.2     1  UNL1        0.3328
      3  N1         3.1050   -0.2680    0.3590 N.am    1  UNL1       -0.1668
      4  C2         1.7060   -0.4620    0.1370 C.2     1  UNL1        0.3148
      5  C3         1.0620   -0.5830   -0.9980 C.2     1  UNL1        0.0147
      6  C4        -0.3730   -0.7650   -0.6810 C.3     1  UNL1        0.0359
      7  C5        -0.4340   -0.7320    0.7730 C.2     1  UNL1        0.1407
      8  C6        -1.6130   -0.8720    1.6890 C.3     1  UNL1        0.0541
      9  C7        -2.6060    0.1550    1.4110 C.ar    1  UNL1        0.0726
     10  N2        -2.6360    1.2680    2.2010 N.ar    1  UNL1       -0.1752
     11  N3        -3.4920    2.2550    1.9990 N.ar    1  UNL1       -0.2427
     12  C8        -4.3960    2.2410    1.0040 C.ar    1  UNL1        0.2682
     13  O2        -5.2110    3.1560    0.7920 O.2     1  UNL1       -0.2661
     14  C9        -4.4070    1.1390    0.1780 C.ar    1  UNL1        0.0232
     15  C10       -3.5170    0.1150    0.3910 C.ar    1  UNL1       -0.0157
     16  C11       -3.5810   -1.0480   -0.4950 C.3     1  UNL1       -0.0255
     17  C12       -5.0410   -1.4420   -0.6140 C.3     1  UNL1       -0.0487
     18  C13       -5.8690   -0.3550   -1.1930 C.3     1  UNL1       -0.0486
     19  C14       -5.3790    1.0300   -0.9660 C.3     1  UNL1       -0.0222
     20  N4         0.7570   -0.5580    1.2190 N.2     1  UNL1       -0.0504
     21  C15        5.5090    0.0320   -0.3730 C.ar    1  UNL1        0.0616
     22  C16        6.3860    0.1500   -1.4400 C.ar    1  UNL1       -0.0474
     23  C17        7.7330    0.3380   -1.2380 C.ar    1  UNL1       -0.0610
     24  C18        8.2800    0.4190    0.0300 C.ar    1  UNL1       -0.0617
     25  C19        7.3870    0.2990    1.0730 C.ar    1  UNL1       -0.0610
     26  C20        6.0360    0.1100    0.8940 C.ar    1  UNL1       -0.0474
     27 H           3.4091   -0.1986    1.2928 H       1  UNL1        0.3016
     28 H           1.4793   -0.5563   -1.9415 H       1  UNL1        0.0657
     29 H          -0.7260   -1.7042   -1.0528 H       1  UNL1        0.0392
     30 H          -0.9868   -0.0126   -1.1304 H       1  UNL1        0.0392
     31 H          -1.2835   -0.7766    2.7025 H       1  UNL1        0.0411
     32 H          -2.0583   -1.8322    1.5319 H       1  UNL1        0.0411
     33 H          -3.4664    3.0326    2.6023 H       1  UNL1        0.1921
     34 H          -3.0159   -1.8563   -0.0801 H       1  UNL1        0.0314
     35 H          -3.1708   -0.8164   -1.4557 H       1  UNL1        0.0314
     36 H          -5.4148   -1.6783    0.3603 H       1  UNL1        0.0268
     37 H          -5.1014   -2.2858   -1.2692 H       1  UNL1        0.0268
     38 H          -6.8488   -0.4290   -0.7694 H       1  UNL1        0.0269
     39 H          -5.8372   -0.5018   -2.2524 H       1  UNL1        0.0269
     40 H          -4.8934    1.3686   -1.8573 H       1  UNL1        0.0315
     41 H          -6.2295    1.6296   -0.7168 H       1  UNL1        0.0315
     42 H           6.0212    0.0957   -2.4038 H       1  UNL1        0.0626
     43 H           8.3549    0.4212   -2.0574 H       1  UNL1        0.0618
     44 H           9.2905    0.5600    0.1849 H       1  UNL1        0.0618
     45 H           7.7503    0.3537    2.0374 H       1  UNL1        0.0618
     46 H           5.4157    0.0264    1.7145 H       1  UNL1        0.0626
@<TRIPOS>BOND
     1     1     2    2
     2     2     3   am
     3     2    21    1
     4     3     4    1
     5     4     5    2
     6     4    20    1
     7     5     6    1
     8     6     7    1
     9     7     8    1
    10     7    20    2
    11     8     9    1
    12     9    10   ar
    13     9    15   ar
    14    10    11   ar
    15    11    12   ar
    16    12    13    2
    17    12    14   ar
    18    14    15   ar
    19    14    19    1
    20    15    16    1
    21    16    17    1
    22    17    18    1
    23    18    19    1
    24    21    22   ar
    25    21    26   ar
    26    22    23   ar
    27    23    24   ar
    28    24    25   ar
    29    25    26   ar
    30     3    27    1
    31     5    28    1
    32     6    29    1
    33     6    30    1
    34     8    31    1
    35     8    32    1
    36    11    33    1
    37    16    34    1
    38    16    35    1
    39    17    36    1
    40    17    37    1
    41    18    38    1
    42    18    39    1
    43    19    40    1
    44    19    41    1
    45    22    42    1
    46    23    43    1
    47    24    44    1
    48    25    45    1
    49    26    46    1
