@<TRIPOS>MOLECULE
../data/bude_mols_rdkit_confs2/molecule_52.pdb
 35 37 0 0 0
SMALL
GASTEIGER

@<TRIPOS>ATOM
      1  C1        -2.7270    3.4770    0.3690 C.3     1  UNL1       -0.0221
      2  C2        -2.3100    2.0340    0.4040 C.ar    1  UNL1        0.0457
      3  C3        -1.0450    1.6730    0.8260 C.ar    1  UNL1        0.0215
      4  C4        -0.6940    0.3340    0.8460 C.ar    1  UNL1        0.2241
      5  O1         0.5750   -0.0110    1.2710 O.3     1  UNL1       -0.4379
      6  C5         1.6960   -0.0200    0.4700 C.ar    1  UNL1        0.1311
      7  C6         1.6670    0.3290   -0.8650 C.ar    1  UNL1       -0.0192
      8  C7         2.8170    0.3090   -1.6440 C.ar    1  UNL1       -0.0576
      9  C8         4.0030   -0.0710   -1.0530 C.ar    1  UNL1       -0.0494
     10  C9         4.0710   -0.4250    0.2730 C.ar    1  UNL1        0.0400
     11  C10        5.3410   -0.8170    0.8460 C.2     1  UNL1        0.2416
     12  N1         6.5010   -0.8350    0.0400 N.am    1  UNL1       -0.3253
     13  O2         5.4420   -1.1480    2.0570 O.2     1  UNL1       -0.2704
     14  C11        2.9010   -0.3940    1.0230 C.ar    1  UNL1       -0.0072
     15  N2        -1.5840   -0.5780    0.4570 N.ar    1  UNL1       -0.1928
     16  C12       -2.8330   -0.2490    0.0380 C.ar    1  UNL1        0.1643
     17  C13       -3.7470   -1.2990   -0.3700 C.2     1  UNL1        0.0274
     18  C14       -4.9870   -1.1340   -0.7970 C.2     1  UNL1       -0.0429
     19  C15       -5.5470   -2.4590   -1.1020 C.2     1  UNL1       -0.0188
     20  C16       -4.5850   -3.2960   -0.8340 C.1     1  UNL1       -0.1191
     21  C17       -3.4740   -2.7280   -0.3870 C.2     1  UNL1       -0.0088
     22  N3        -3.1550    1.0550    0.0260 N.ar    1  UNL1       -0.2323
     23 H          -1.9175    4.0905    0.7056 H       1  UNL1        0.0293
     24 H          -3.5726    3.6195    1.0090 H       1  UNL1        0.0293
     25 H          -2.9879    3.7487   -0.6325 H       1  UNL1        0.0293
     26 H          -0.3689    2.3938    1.1232 H       1  UNL1        0.0689
     27 H           0.7716    0.6109   -1.2938 H       1  UNL1        0.0654
     28 H           2.7842    0.5723   -2.6413 H       1  UNL1        0.0619
     29 H           4.8636   -0.0901   -1.6222 H       1  UNL1        0.0625
     30 H           6.4449   -0.5800   -0.9092 H       1  UNL1        0.1453
     31 H           7.3656   -1.1025    0.4275 H       1  UNL1        0.1453
     32 H           2.9360   -0.6580    2.0200 H       1  UNL1        0.0662
     33 H          -5.4772   -0.2316   -0.8987 H       1  UNL1        0.0631
     34 H          -6.4932   -2.6777   -1.4512 H       1  UNL1        0.0706
     35 H          -2.5993   -3.2001   -0.1094 H       1  UNL1        0.0713
@<TRIPOS>BOND
     1     1     2    1
     2     2     3   ar
     3     2    22   ar
     4     3     4   ar
     5     4     5    1
     6     4    15   ar
     7     5     6    1
     8     6     7   ar
     9     6    14   ar
    10     7     8   ar
    11     8     9   ar
    12     9    10   ar
    13    10    11    1
    14    10    14   ar
    15    11    12   am
    16    11    13    2
    17    15    16   ar
    18    16    17    1
    19    16    22   ar
    20    17    18    2
    21    17    21    1
    22    18    19    1
    23    19    20    2
    24    20    21    2
    25     1    23    1
    26     1    24    1
    27     1    25    1
    28     3    26    1
    29     7    27    1
    30     8    28    1
    31     9    29    1
    32    12    30    1
    33    12    31    1
    34    14    32    1
    35    18    33    1
    36    19    34    1
    37    21    35    1
@<TRIPOS>MOLECULE
../data/bude_mols_rdkit_confs2/molecule_52.pdb
 35 37 0 0 0
SMALL
GASTEIGER

@<TRIPOS>ATOM
      1  C1        -2.9360    3.7170   -1.5450 C.3     1  UNL1       -0.0221
      2  C2        -2.1590    2.5170   -1.1490 C.ar    1  UNL1        0.0457
      3  C3        -0.8650    2.2900   -1.5760 C.ar    1  UNL1        0.0215
      4  C4        -0.2000    1.1540   -1.1700 C.ar    1  UNL1        0.2241
      5  O1         1.1000    0.9210   -1.5960 O.3     1  UNL1       -0.4379
      6  C5         1.8190   -0.2050   -1.2200 C.ar    1  UNL1        0.1311
      7  C6         1.7870   -1.3740   -1.9600 C.ar    1  UNL1       -0.0192
      8  C7         2.5010   -2.4960   -1.5890 C.ar    1  UNL1       -0.0576
      9  C8         3.2590   -2.4340   -0.4520 C.ar    1  UNL1       -0.0494
     10  C9         3.3410   -1.2940    0.3430 C.ar    1  UNL1        0.0400
     11  C10        4.1540   -1.2580    1.5450 C.2     1  UNL1        0.2416
     12  N1         4.2310   -0.1040    2.3400 N.am    1  UNL1       -0.3253
     13  O2         4.7930   -2.2830    1.8650 O.2     1  UNL1       -0.2704
     14  C11        2.6000   -0.1990   -0.0830 C.ar    1  UNL1       -0.0072
     15  N2        -0.8040    0.2810   -0.3690 N.ar    1  UNL1       -0.1928
     16  C12       -2.0600    0.4950    0.0500 C.ar    1  UNL1        0.1643
     17  C13       -2.6830   -0.4800    0.9220 C.2     1  UNL1        0.0274
     18  C14       -3.9300   -0.3790    1.4060 C.2     1  UNL1       -0.0429
     19  C15       -4.1560   -1.5500    2.2240 C.2     1  UNL1       -0.0188
     20  C16       -3.0580   -2.2470    2.1680 C.1     1  UNL1       -0.1191
     21  C17       -2.1070   -1.7150    1.4270 C.2     1  UNL1       -0.0088
     22  N3        -2.7040    1.5950   -0.3440 N.ar    1  UNL1       -0.2323
     23 H          -2.3394    4.3331   -2.1848 H       1  UNL1        0.0293
     24 H          -3.2087    4.2699   -0.6705 H       1  UNL1        0.0293
     25 H          -3.8204    3.4136   -2.0653 H       1  UNL1        0.0293
     26 H          -0.3981    2.9692   -2.1971 H       1  UNL1        0.0689
     27 H           1.2114   -1.4082   -2.8159 H       1  UNL1        0.0654
     28 H           2.4638   -3.3585   -2.1545 H       1  UNL1        0.0619
     29 H           3.7944   -3.2702   -0.1707 H       1  UNL1        0.0625
     30 H           3.7270    0.7028    2.0866 H       1  UNL1        0.1453
     31 H           4.7890   -0.1013    3.1511 H       1  UNL1        0.1453
     32 H           2.6357    0.6646    0.4809 H       1  UNL1        0.0662
     33 H          -4.5990    0.3866    1.2288 H       1  UNL1        0.0631
     34 H          -5.0142   -1.7855    2.7465 H       1  UNL1        0.0706
     35 H          -1.1634   -2.0915    1.2457 H       1  UNL1        0.0713
@<TRIPOS>BOND
     1     1     2    1
     2     2     3   ar
     3     2    22   ar
     4     3     4   ar
     5     4     5    1
     6     4    15   ar
     7     5     6    1
     8     6     7   ar
     9     6    14   ar
    10     7     8   ar
    11     8     9   ar
    12     9    10   ar
    13    10    11    1
    14    10    14   ar
    15    11    12   am
    16    11    13    2
    17    15    16   ar
    18    16    17    1
    19    16    22   ar
    20    17    18    2
    21    17    21    1
    22    18    19    1
    23    19    20    2
    24    20    21    2
    25     1    23    1
    26     1    24    1
    27     1    25    1
    28     3    26    1
    29     7    27    1
    30     8    28    1
    31     9    29    1
    32    12    30    1
    33    12    31    1
    34    14    32    1
    35    18    33    1
    36    19    34    1
    37    21    35    1
@<TRIPOS>MOLECULE
../data/bude_mols_rdkit_confs2/molecule_52.pdb
 35 37 0 0 0
SMALL
GASTEIGER

@<TRIPOS>ATOM
      1  C1        -1.4480   -2.5170    1.6280 C.3     1  UNL1       -0.0221
      2  C2        -1.5940   -1.2850    0.7940 C.ar    1  UNL1        0.0457
      3  C3        -0.4870   -0.7200    0.1710 C.ar    1  UNL1        0.0215
      4  C4        -0.6720    0.4150   -0.5860 C.ar    1  UNL1        0.2241
      5  O1         0.4370    0.9910   -1.2180 O.3     1  UNL1       -0.4379
      6  C5         1.7060    0.4440   -1.0950 C.ar    1  UNL1        0.1311
      7  C6         2.1310   -0.5060   -2.0050 C.ar    1  UNL1       -0.0192
      8  C7         3.3900   -1.0500   -1.8820 C.ar    1  UNL1       -0.0576
      9  C8         4.2180   -0.6590   -0.8720 C.ar    1  UNL1       -0.0494
     10  C9         3.8340    0.2850    0.0550 C.ar    1  UNL1        0.0400
     11  C10        4.7120    0.7090    1.1380 C.2     1  UNL1        0.2416
     12  N1         5.9990    0.1390    1.2450 N.am    1  UNL1       -0.3253
     13  O2         4.3440    1.5700    1.9730 O.2     1  UNL1       -0.2704
     14  C11        2.5620    0.8210   -0.0850 C.ar    1  UNL1       -0.0072
     15  N2        -1.9020    0.9430   -0.7040 N.ar    1  UNL1       -0.1928
     16  C12       -2.9840    0.4110   -0.1090 C.ar    1  UNL1        0.1643
     17  C13       -4.3150    1.0190   -0.2620 C.2     1  UNL1        0.0274
     18  C14       -4.6250    2.0850   -0.9450 C.2     1  UNL1       -0.0429
     19  C15       -6.0780    2.3100   -0.8050 C.2     1  UNL1       -0.0188
     20  C16       -6.5020    1.2540   -0.1340 C.1     1  UNL1       -0.1191
     21  C17       -5.5300    0.4980    0.3520 C.2     1  UNL1       -0.0088
     22  N3        -2.7910   -0.6950    0.6270 N.ar    1  UNL1       -0.2323
     23 H          -0.4233   -2.8251    1.6328 H       1  UNL1        0.0293
     24 H          -2.0535   -3.2985    1.2188 H       1  UNL1        0.0293
     25 H          -1.7627   -2.3092    2.6294 H       1  UNL1        0.0293
     26 H           0.4498   -1.1407    0.2734 H       1  UNL1        0.0689
     27 H           1.5086   -0.8056   -2.7717 H       1  UNL1        0.0654
     28 H           3.7094   -1.7595   -2.5599 H       1  UNL1        0.0619
     29 H           5.1569   -1.0812   -0.8000 H       1  UNL1        0.0625
     30 H           6.2937   -0.5371    0.5929 H       1  UNL1        0.1453
     31 H           6.6019    0.4176    1.9717 H       1  UNL1        0.1453
     32 H           2.2452    1.5301    0.5946 H       1  UNL1        0.0662
     33 H          -3.9702    2.6692   -1.4882 H       1  UNL1        0.0631
     34 H          -6.6336    3.1078   -1.1513 H       1  UNL1        0.0706
     35 H          -5.6139   -0.2861    1.0177 H       1  UNL1        0.0713
@<TRIPOS>BOND
     1     1     2    1
     2     2     3   ar
     3     2    22   ar
     4     3     4   ar
     5     4     5    1
     6     4    15   ar
     7     5     6    1
     8     6     7   ar
     9     6    14   ar
    10     7     8   ar
    11     8     9   ar
    12     9    10   ar
    13    10    11    1
    14    10    14   ar
    15    11    12   am
    16    11    13    2
    17    15    16   ar
    18    16    17    1
    19    16    22   ar
    20    17    18    2
    21    17    21    1
    22    18    19    1
    23    19    20    2
    24    20    21    2
    25     1    23    1
    26     1    24    1
    27     1    25    1
    28     3    26    1
    29     7    27    1
    30     8    28    1
    31     9    29    1
    32    12    30    1
    33    12    31    1
    34    14    32    1
    35    18    33    1
    36    19    34    1
    37    21    35    1
@<TRIPOS>MOLECULE
../data/bude_mols_rdkit_confs2/molecule_52.pdb
 35 37 0 0 0
SMALL
GASTEIGER

@<TRIPOS>ATOM
      1  C1        -1.9110   -3.4090   -0.4490 C.3     1  UNL1       -0.0221
      2  C2        -1.7650   -2.0270    0.0780 C.ar    1  UNL1        0.0457
      3  C3        -0.6170   -1.6200    0.7280 C.ar    1  UNL1        0.0215
      4  C4        -0.5760   -0.3180    1.1830 C.ar    1  UNL1        0.2241
      5  O1         0.6120    0.0540    1.8390 O.3     1  UNL1       -0.4379
      6  C5         1.6940    0.4840    1.0450 C.ar    1  UNL1        0.1311
      7  C6         1.8330    1.8170    0.7340 C.ar    1  UNL1       -0.0192
      8  C7         2.8930    2.2280   -0.0420 C.ar    1  UNL1       -0.0576
      9  C8         3.8280    1.3130   -0.5160 C.ar    1  UNL1       -0.0494
     10  C9         3.6960   -0.0240   -0.2090 C.ar    1  UNL1        0.0400
     11  C10        4.6680   -0.9930   -0.7000 C.2     1  UNL1        0.2416
     12  N1         5.7770   -0.5960   -1.4930 N.am    1  UNL1       -0.3253
     13  O2         4.5410   -2.2150   -0.4270 O.2     1  UNL1       -0.2704
     14  C11        2.6250   -0.4060    0.5690 C.ar    1  UNL1       -0.0072
     15  N2        -1.6000    0.5280    1.0080 N.ar    1  UNL1       -0.1928
     16  C12       -2.7070    0.1040    0.3710 C.ar    1  UNL1        0.1643
     17  C13       -3.8490    1.0030    0.1610 C.2     1  UNL1        0.0274
     18  C14       -3.9630    2.2660    0.5310 C.2     1  UNL1       -0.0429
     19  C15       -5.2810    2.7480    0.1020 C.2     1  UNL1       -0.0188
     20  C16       -5.9210    1.6310   -0.2080 C.1     1  UNL1       -0.1191
     21  C17       -5.0900    0.6470   -0.5130 C.2     1  UNL1       -0.0088
     22  N3        -2.7630   -1.1620   -0.0780 N.ar    1  UNL1       -0.2323
     23 H          -1.0222   -3.9666   -0.2390 H       1  UNL1        0.0293
     24 H          -2.0676   -3.3726   -1.5069 H       1  UNL1        0.0293
     25 H          -2.7483   -3.8827    0.0194 H       1  UNL1        0.0293
     26 H           0.1779   -2.2632    0.8678 H       1  UNL1        0.0689
     27 H           1.1463    2.5050    1.0806 H       1  UNL1        0.0654
     28 H           2.9956    3.2280   -0.2753 H       1  UNL1        0.0619
     29 H           4.6185    1.6348   -1.0961 H       1  UNL1        0.0625
     30 H           5.9031    0.3529   -1.7231 H       1  UNL1        0.1453
     31 H           6.4198   -1.2696   -1.8127 H       1  UNL1        0.1453
     32 H           2.5178   -1.4051    0.8044 H       1  UNL1        0.0662
     33 H          -3.2500    2.8172    1.0338 H       1  UNL1        0.0631
     34 H          -5.6250    3.7198    0.0537 H       1  UNL1        0.0706
     35 H          -5.2785   -0.1835   -1.0958 H       1  UNL1        0.0713
@<TRIPOS>BOND
     1     1     2    1
     2     2     3   ar
     3     2    22   ar
     4     3     4   ar
     5     4     5    1
     6     4    15   ar
     7     5     6    1
     8     6     7   ar
     9     6    14   ar
    10     7     8   ar
    11     8     9   ar
    12     9    10   ar
    13    10    11    1
    14    10    14   ar
    15    11    12   am
    16    11    13    2
    17    15    16   ar
    18    16    17    1
    19    16    22   ar
    20    17    18    2
    21    17    21    1
    22    18    19    1
    23    19    20    2
    24    20    21    2
    25     1    23    1
    26     1    24    1
    27     1    25    1
    28     3    26    1
    29     7    27    1
    30     8    28    1
    31     9    29    1
    32    12    30    1
    33    12    31    1
    34    14    32    1
    35    18    33    1
    36    19    34    1
    37    21    35    1
@<TRIPOS>MOLECULE
../data/bude_mols_rdkit_confs2/molecule_52.pdb
 35 37 0 0 0
SMALL
GASTEIGER

@<TRIPOS>ATOM
      1  C1        -0.7390    1.9160    2.7010 C.3     1  UNL1       -0.0221
      2  C2        -1.1620    1.1120    1.5250 C.ar    1  UNL1        0.0457
      3  C3        -0.1880    0.7340    0.6260 C.ar    1  UNL1        0.0215
      4  C4        -0.5970   -0.0110   -0.4590 C.ar    1  UNL1        0.2241
      5  O1         0.3020   -0.4430   -1.4230 O.3     1  UNL1       -0.4379
      6  C5         1.6580   -0.1640   -1.3710 C.ar    1  UNL1        0.1311
      7  C6         2.1620    0.9720   -1.9590 C.ar    1  UNL1       -0.0192
      8  C7         3.5190    1.2370   -1.8970 C.ar    1  UNL1       -0.0576
      9  C8         4.3670    0.3400   -1.2330 C.ar    1  UNL1       -0.0494
     10  C9         3.8750   -0.7970   -0.6420 C.ar    1  UNL1        0.0400
     11  C10        4.7510   -1.7160    0.0400 C.2     1  UNL1        0.2416
     12  N1         4.2050   -2.8890    0.6430 N.am    1  UNL1       -0.3253
     13  O2         6.0050   -1.5280    0.1300 O.2     1  UNL1       -0.2704
     14  C11        2.5300   -1.0420   -0.7130 C.ar    1  UNL1       -0.0072
     15  N2        -1.8850   -0.3420   -0.6160 N.ar    1  UNL1       -0.1928
     16  C12       -2.8280    0.0240    0.2550 C.ar    1  UNL1        0.1643
     17  C13       -4.2180   -0.3630    0.0380 C.2     1  UNL1        0.0274
     18  C14       -4.6970   -1.0730   -0.9690 C.2     1  UNL1       -0.0429
     19  C15       -6.1450   -1.2350   -0.8050 C.2     1  UNL1       -0.0188
     20  C16       -6.4000   -0.6670    0.3440 C.1     1  UNL1       -0.1191
     21  C17       -5.3640   -0.0500    0.8820 C.2     1  UNL1       -0.0088
     22  N3        -2.4410    0.7510    1.3170 N.ar    1  UNL1       -0.2323
     23 H           0.3172    2.0816    2.6585 H       1  UNL1        0.0293
     24 H          -0.9814    1.3883    3.5997 H       1  UNL1        0.0293
     25 H          -1.2483    2.8570    2.6916 H       1  UNL1        0.0293
     26 H           0.8011    0.9965    0.7591 H       1  UNL1        0.0689
     27 H           1.5294    1.6261   -2.4459 H       1  UNL1        0.0654
     28 H           3.9034    2.0882   -2.3361 H       1  UNL1        0.0619
     29 H           5.3788    0.5378   -1.1877 H       1  UNL1        0.0625
     30 H           3.2376   -3.0643    0.5914 H       1  UNL1        0.1453
     31 H           4.7958   -3.5227    1.1105 H       1  UNL1        0.1453
     32 H           2.1491   -1.8935   -0.2715 H       1  UNL1        0.0662
     33 H          -4.1388   -1.4539   -1.7490 H       1  UNL1        0.0631
     34 H          -6.8096   -1.6922   -1.4486 H       1  UNL1        0.0706
     35 H          -5.3655    0.5369    1.7309 H       1  UNL1        0.0713
@<TRIPOS>BOND
     1     1     2    1
     2     2     3   ar
     3     2    22   ar
     4     3     4   ar
     5     4     5    1
     6     4    15   ar
     7     5     6    1
     8     6     7   ar
     9     6    14   ar
    10     7     8   ar
    11     8     9   ar
    12     9    10   ar
    13    10    11    1
    14    10    14   ar
    15    11    12   am
    16    11    13    2
    17    15    16   ar
    18    16    17    1
    19    16    22   ar
    20    17    18    2
    21    17    21    1
    22    18    19    1
    23    19    20    2
    24    20    21    2
    25     1    23    1
    26     1    24    1
    27     1    25    1
    28     3    26    1
    29     7    27    1
    30     8    28    1
    31     9    29    1
    32    12    30    1
    33    12    31    1
    34    14    32    1
    35    18    33    1
    36    19    34    1
    37    21    35    1
@<TRIPOS>MOLECULE
../data/bude_mols_rdkit_confs2/molecule_52.pdb
 35 37 0 0 0
SMALL
GASTEIGER

@<TRIPOS>ATOM
      1  C1        -1.3480   -2.9870    0.6940 C.3     1  UNL1       -0.0221
      2  C2        -1.5310   -1.5510    0.3660 C.ar    1  UNL1        0.0457
      3  C3        -0.4280   -0.8660   -0.1010 C.ar    1  UNL1        0.0215
      4  C4        -0.5240    0.4850   -0.4300 C.ar    1  UNL1        0.2241
      5  O1         0.5860    1.1820   -0.9020 O.3     1  UNL1       -0.4379
      6  C5         1.8140    0.5840   -1.0660 C.ar    1  UNL1        0.1311
      7  C6         2.1160    0.0010   -2.2700 C.ar    1  UNL1       -0.0192
      8  C7         3.3320   -0.5920   -2.4370 C.ar    1  UNL1       -0.0576
      9  C8         4.2590   -0.6240   -1.4430 C.ar    1  UNL1       -0.0494
     10  C9         3.9380   -0.0260   -0.2240 C.ar    1  UNL1        0.0400
     11  C10        4.8760   -0.0220    0.8800 C.2     1  UNL1        0.2416
     12  N1         4.5340    0.5850    2.1000 N.am    1  UNL1       -0.3253
     13  O2         5.9910   -0.5580    0.7450 O.2     1  UNL1       -0.2704
     14  C11        2.7150    0.5700   -0.0570 C.ar    1  UNL1       -0.0072
     15  N2        -1.7230    1.0680   -0.2690 N.ar    1  UNL1       -0.1928
     16  C12       -2.8100    0.4230    0.1830 C.ar    1  UNL1        0.1643
     17  C13       -4.0980    1.0880    0.3460 C.2     1  UNL1        0.0274
     18  C14       -4.3830    2.3520    0.0900 C.2     1  UNL1       -0.0429
     19  C15       -5.8010    2.6070    0.3930 C.2     1  UNL1       -0.0188
     20  C16       -6.2540    1.4350    0.7910 C.1     1  UNL1       -0.1191
     21  C17       -5.3330    0.4860    0.8260 C.2     1  UNL1       -0.0088
     22  N3        -2.6770   -0.8840    0.4910 N.ar    1  UNL1       -0.2323
     23 H          -0.3339   -3.2701    0.5030 H       1  UNL1        0.0293
     24 H          -2.0033   -3.5775    0.0883 H       1  UNL1        0.0293
     25 H          -1.5749   -3.1486    1.7271 H       1  UNL1        0.0293
     26 H           0.4735   -1.3570   -0.2073 H       1  UNL1        0.0689
     27 H           1.4302    0.0111   -3.0411 H       1  UNL1        0.0654
     28 H           3.5555   -1.0295   -3.3446 H       1  UNL1        0.0619
     29 H           5.1746   -1.0780   -1.5862 H       1  UNL1        0.0625
     30 H           3.6524    1.0095    2.2085 H       1  UNL1        0.1453
     31 H           5.1760    0.5859    2.8464 H       1  UNL1        0.1453
     32 H           2.4797    1.0115    0.8456 H       1  UNL1        0.0662
     33 H          -3.7149    3.0527   -0.2673 H       1  UNL1        0.0631
     34 H          -6.3192    3.4958    0.3126 H       1  UNL1        0.0706
     35 H          -5.4646   -0.4903    1.1335 H       1  UNL1        0.0713
@<TRIPOS>BOND
     1     1     2    1
     2     2     3   ar
     3     2    22   ar
     4     3     4   ar
     5     4     5    1
     6     4    15   ar
     7     5     6    1
     8     6     7   ar
     9     6    14   ar
    10     7     8   ar
    11     8     9   ar
    12     9    10   ar
    13    10    11    1
    14    10    14   ar
    15    11    12   am
    16    11    13    2
    17    15    16   ar
    18    16    17    1
    19    16    22   ar
    20    17    18    2
    21    17    21    1
    22    18    19    1
    23    19    20    2
    24    20    21    2
    25     1    23    1
    26     1    24    1
    27     1    25    1
    28     3    26    1
    29     7    27    1
    30     8    28    1
    31     9    29    1
    32    12    30    1
    33    12    31    1
    34    14    32    1
    35    18    33    1
    36    19    34    1
    37    21    35    1
@<TRIPOS>MOLECULE
../data/bude_mols_rdkit_confs2/molecule_52.pdb
 35 37 0 0 0
SMALL
GASTEIGER

@<TRIPOS>ATOM
      1  C1        -3.0670   -3.9770    0.1590 C.3     1  UNL1       -0.0221
      2  C2        -2.3910   -2.6510    0.1030 C.ar    1  UNL1        0.0457
      3  C3        -1.0430   -2.4900    0.2020 C.ar    1  UNL1        0.0215
      4  C4        -0.4460   -1.2200    0.1440 C.ar    1  UNL1        0.2241
      5  O1         0.9010   -1.1590    0.2520 O.3     1  UNL1       -0.4379
      6  C5         1.7440   -0.0860    0.2320 C.ar    1  UNL1        0.1311
      7  C6         1.3670    1.2290    0.0880 C.ar    1  UNL1       -0.0192
      8  C7         2.3220    2.2370    0.0830 C.ar    1  UNL1       -0.0576
      9  C8         3.6640    1.9160    0.2230 C.ar    1  UNL1       -0.0494
     10  C9         4.0750    0.6100    0.3680 C.ar    1  UNL1        0.0400
     11  C10        5.4990    0.2790    0.5160 C.2     1  UNL1        0.2416
     12  N1         6.4400    1.3300    0.5060 N.am    1  UNL1       -0.3253
     13  O2         5.8810   -0.9140    0.6500 O.2     1  UNL1       -0.2704
     14  C11        3.1100   -0.3700    0.3710 C.ar    1  UNL1       -0.0072
     15  N2        -1.2940   -0.1930   -0.0140 N.ar    1  UNL1       -0.1928
     16  C12       -2.6260   -0.3450   -0.1130 C.ar    1  UNL1        0.1643
     17  C13       -3.4780    0.8460   -0.2860 C.2     1  UNL1        0.0274
     18  C14       -4.7960    0.8320   -0.3950 C.2     1  UNL1       -0.0429
     19  C15       -5.2370    2.2060   -0.5490 C.2     1  UNL1       -0.0188
     20  C16       -4.1230    2.9170   -0.6130 C.1     1  UNL1       -0.1191
     21  C17       -3.0290    2.2150   -0.3650 C.2     1  UNL1       -0.0088
     22  N3        -3.1820   -1.5670   -0.0560 N.ar    1  UNL1       -0.2323
     23 H          -2.3339   -4.7460    0.2863 H       1  UNL1        0.0293
     24 H          -3.6033   -4.1427   -0.7520 H       1  UNL1        0.0293
     25 H          -3.7494   -3.9949    0.9829 H       1  UNL1        0.0293
     26 H          -0.4446   -3.3221    0.3227 H       1  UNL1        0.0689
     27 H           0.3685    1.4678   -0.0169 H       1  UNL1        0.0654
     28 H           2.0340    3.2222   -0.0246 H       1  UNL1        0.0619
     29 H           4.3680    2.6706    0.2184 H       1  UNL1        0.0625
     30 H           6.1372    2.2609    0.4010 H       1  UNL1        0.1453
     31 H           7.3995    1.1326    0.6040 H       1  UNL1        0.1453
     32 H           3.4030   -1.3535    0.4799 H       1  UNL1        0.0662
     33 H          -5.4008   -0.0039   -0.3743 H       1  UNL1        0.0631
     34 H          -6.2077    2.5528   -0.5979 H       1  UNL1        0.0706
     35 H          -2.0661    2.5690   -0.2527 H       1  UNL1        0.0713
@<TRIPOS>BOND
     1     1     2    1
     2     2     3   ar
     3     2    22   ar
     4     3     4   ar
     5     4     5    1
     6     4    15   ar
     7     5     6    1
     8     6     7   ar
     9     6    14   ar
    10     7     8   ar
    11     8     9   ar
    12     9    10   ar
    13    10    11    1
    14    10    14   ar
    15    11    12   am
    16    11    13    2
    17    15    16   ar
    18    16    17    1
    19    16    22   ar
    20    17    18    2
    21    17    21    1
    22    18    19    1
    23    19    20    2
    24    20    21    2
    25     1    23    1
    26     1    24    1
    27     1    25    1
    28     3    26    1
    29     7    27    1
    30     8    28    1
    31     9    29    1
    32    12    30    1
    33    12    31    1
    34    14    32    1
    35    18    33    1
    36    19    34    1
    37    21    35    1
@<TRIPOS>MOLECULE
../data/bude_mols_rdkit_confs2/molecule_52.pdb
 35 37 0 0 0
SMALL
GASTEIGER

@<TRIPOS>ATOM
      1  C1        -2.9020   -3.4110    0.3400 C.3     1  UNL1       -0.0221
      2  C2        -2.4190   -2.0210    0.2570 C.ar    1  UNL1        0.0457
      3  C3        -1.0720   -1.7800    0.1350 C.ar    1  UNL1        0.0215
      4  C4        -0.5300   -0.5000    0.0510 C.ar    1  UNL1        0.2241
      5  O1         0.7110   -0.1100   -0.0670 O.3     1  UNL1       -0.4379
      6  C5         1.9810   -0.4210   -0.1660 C.ar    1  UNL1        0.1311
      7  C6         2.4800   -1.7010   -0.1710 C.ar    1  UNL1       -0.0192
      8  C7         3.8460   -1.9570   -0.2800 C.ar    1  UNL1       -0.0576
      9  C8         4.7300   -0.9120   -0.3860 C.ar    1  UNL1       -0.0494
     10  C9         4.2800    0.4040   -0.3870 C.ar    1  UNL1        0.0400
     11  C10        5.2260    1.5160   -0.5010 C.2     1  UNL1        0.2416
     12  N1         4.7680    2.8510   -0.5010 N.am    1  UNL1       -0.3253
     13  O2         6.4440    1.2820   -0.5980 O.2     1  UNL1       -0.2704
     14  C11        2.9360    0.6120   -0.2780 C.ar    1  UNL1       -0.0072
     15  N2        -1.4870    0.4910    0.1030 N.ar    1  UNL1       -0.1928
     16  C12       -2.7770    0.3010    0.2190 C.ar    1  UNL1        0.1643
     17  C13       -3.7480    1.3920    0.2690 C.2     1  UNL1        0.0274
     18  C14       -5.0610    1.3180    0.3840 C.2     1  UNL1       -0.0429
     19  C15       -5.6030    2.6820    0.3890 C.2     1  UNL1       -0.0188
     20  C16       -4.5520    3.4490    0.2400 C.1     1  UNL1       -0.1191
     21  C17       -3.3980    2.8030    0.1980 C.2     1  UNL1       -0.0088
     22  N3        -3.2460   -0.9710    0.2970 N.ar    1  UNL1       -0.2323
     23 H          -2.0697   -4.0815    0.2882 H       1  UNL1        0.0293
     24 H          -3.5684   -3.6062   -0.4740 H       1  UNL1        0.0293
     25 H          -3.4185   -3.5544    1.2660 H       1  UNL1        0.0293
     26 H          -0.4301   -2.5875    0.1041 H       1  UNL1        0.0689
     27 H           1.8255   -2.4950   -0.0919 H       1  UNL1        0.0654
     28 H           4.1918   -2.9294   -0.2810 H       1  UNL1        0.0619
     29 H           5.7406   -1.1053   -0.4659 H       1  UNL1        0.0625
     30 H           3.8051    3.0411   -0.4245 H       1  UNL1        0.1453
     31 H           5.4115    3.5922   -0.5775 H       1  UNL1        0.1453
     32 H           2.5962    1.5865   -0.2774 H       1  UNL1        0.0662
     33 H          -5.6126    0.4489    0.4578 H       1  UNL1        0.0631
     34 H          -6.5888    2.9711    0.4876 H       1  UNL1        0.0706
     35 H          -2.4529    3.2118    0.1296 H       1  UNL1        0.0713
@<TRIPOS>BOND
     1     1     2    1
     2     2     3   ar
     3     2    22   ar
     4     3     4   ar
     5     4     5    1
     6     4    15   ar
     7     5     6    1
     8     6     7   ar
     9     6    14   ar
    10     7     8   ar
    11     8     9   ar
    12     9    10   ar
    13    10    11    1
    14    10    14   ar
    15    11    12   am
    16    11    13    2
    17    15    16   ar
    18    16    17    1
    19    16    22   ar
    20    17    18    2
    21    17    21    1
    22    18    19    1
    23    19    20    2
    24    20    21    2
    25     1    23    1
    26     1    24    1
    27     1    25    1
    28     3    26    1
    29     7    27    1
    30     8    28    1
    31     9    29    1
    32    12    30    1
    33    12    31    1
    34    14    32    1
    35    18    33    1
    36    19    34    1
    37    21    35    1
@<TRIPOS>MOLECULE
../data/bude_mols_rdkit_confs2/molecule_52.pdb
 35 37 0 0 0
SMALL
GASTEIGER

@<TRIPOS>ATOM
      1  C1        -3.2690   -3.6380   -0.7090 C.3     1  UNL1       -0.0221
      2  C2        -2.5530   -2.3590   -0.4210 C.ar    1  UNL1        0.0457
      3  C3        -1.1840   -2.2540   -0.4950 C.ar    1  UNL1        0.0215
      4  C4        -0.5130   -1.0620   -0.2270 C.ar    1  UNL1        0.2241
      5  O1         0.8420   -0.9840   -0.3070 O.3     1  UNL1       -0.4379
      6  C5         1.7160    0.0100   -0.1060 C.ar    1  UNL1        0.1311
      7  C6         1.3600    1.2790    0.2580 C.ar    1  UNL1       -0.0192
      8  C7         2.3590    2.2200    0.4350 C.ar    1  UNL1       -0.0576
      9  C8         3.6900    1.9110    0.2540 C.ar    1  UNL1       -0.0494
     10  C9         4.0800    0.6320   -0.1160 C.ar    1  UNL1        0.0400
     11  C10        5.4800    0.3140   -0.3050 C.2     1  UNL1        0.2416
     12  N1         5.8540   -0.9810   -0.6770 N.am    1  UNL1       -0.3253
     13  O2         6.3450    1.1930   -0.1340 O.2     1  UNL1       -0.2704
     14  C11        3.0700   -0.2820   -0.2850 C.ar    1  UNL1       -0.0072
     15  N2        -1.2570   -0.0090    0.1090 N.ar    1  UNL1       -0.1928
     16  C12       -2.5770   -0.0860    0.1870 C.ar    1  UNL1        0.1643
     17  C13       -3.3550    1.0710    0.5540 C.2     1  UNL1        0.0274
     18  C14       -2.8840    2.2640    0.8370 C.2     1  UNL1       -0.0429
     19  C15       -4.0050    3.1410    1.1540 C.2     1  UNL1       -0.0188
     20  C16       -5.0630    2.3800    1.0260 C.1     1  UNL1       -0.1191
     21  C17       -4.8260    1.1440    0.6820 C.2     1  UNL1       -0.0088
     22  N3        -3.2290   -1.2500   -0.0750 N.ar    1  UNL1       -0.2323
     23 H          -2.5575   -4.3955   -0.9639 H       1  UNL1        0.0293
     24 H          -3.9437   -3.4928   -1.5267 H       1  UNL1        0.0293
     25 H          -3.8187   -3.9419    0.1573 H       1  UNL1        0.0293
     26 H          -0.6341   -3.0867   -0.7581 H       1  UNL1        0.0689
     27 H           0.3686    1.5294    0.3976 H       1  UNL1        0.0654
     28 H           2.1002    3.1803    0.7103 H       1  UNL1        0.0619
     29 H           4.4059    2.6407    0.3956 H       1  UNL1        0.0625
     30 H           5.1663   -1.6726   -0.8110 H       1  UNL1        0.1453
     31 H           6.8050   -1.2011   -0.8049 H       1  UNL1        0.1453
     32 H           3.3266   -1.2428   -0.5609 H       1  UNL1        0.0662
     33 H          -1.8882    2.5350    0.8353 H       1  UNL1        0.0631
     34 H          -3.9720    4.1377    1.4196 H       1  UNL1        0.0706
     35 H          -5.5115    0.3872    0.5328 H       1  UNL1        0.0713
@<TRIPOS>BOND
     1     1     2    1
     2     2     3   ar
     3     2    22   ar
     4     3     4   ar
     5     4     5    1
     6     4    15   ar
     7     5     6    1
     8     6     7   ar
     9     6    14   ar
    10     7     8   ar
    11     8     9   ar
    12     9    10   ar
    13    10    11    1
    14    10    14   ar
    15    11    12   am
    16    11    13    2
    17    15    16   ar
    18    16    17    1
    19    16    22   ar
    20    17    18    2
    21    17    21    1
    22    18    19    1
    23    19    20    2
    24    20    21    2
    25     1    23    1
    26     1    24    1
    27     1    25    1
    28     3    26    1
    29     7    27    1
    30     8    28    1
    31     9    29    1
    32    12    30    1
    33    12    31    1
    34    14    32    1
    35    18    33    1
    36    19    34    1
    37    21    35    1
@<TRIPOS>MOLECULE
../data/bude_mols_rdkit_confs2/molecule_52.pdb
 35 37 0 0 0
SMALL
GASTEIGER

@<TRIPOS>ATOM
      1  C1        -2.5760   -3.3120   -1.4930 C.3     1  UNL1       -0.0221
      2  C2        -2.1810   -2.1100   -0.7140 C.ar    1  UNL1        0.0457
      3  C3        -1.0190   -2.1140    0.0090 C.ar    1  UNL1        0.0215
      4  C4        -0.6530   -0.9820    0.7390 C.ar    1  UNL1        0.2241
      5  O1         0.5160   -1.0280    1.4480 O.3     1  UNL1       -0.4379
      6  C5         1.7750   -0.7590    0.9410 C.ar    1  UNL1        0.1311
      7  C6         2.5450   -1.7730    0.3860 C.ar    1  UNL1       -0.0192
      8  C7         3.7960   -1.4820   -0.1120 C.ar    1  UNL1       -0.0576
      9  C8         4.2950   -0.1970   -0.0690 C.ar    1  UNL1       -0.0494
     10  C9         3.5540    0.8330    0.4760 C.ar    1  UNL1        0.0400
     11  C10        4.0630    2.2000    0.5340 C.2     1  UNL1        0.2416
     12  N1         5.3440    2.5430    0.0740 N.am    1  UNL1       -0.3253
     13  O2         3.3380    3.1040    1.0100 O.2     1  UNL1       -0.2704
     14  C11        2.3050    0.5280    0.9710 C.ar    1  UNL1       -0.0072
     15  N2        -1.4790    0.0950    0.7020 N.ar    1  UNL1       -0.1928
     16  C12       -2.6200    0.1000   -0.0070 C.ar    1  UNL1        0.1643
     17  C13       -3.4970    1.2860   -0.0290 C.2     1  UNL1        0.0274
     18  C14       -4.6350    1.3670   -0.7000 C.2     1  UNL1       -0.0429
     19  C15       -5.2130    2.6950   -0.4740 C.2     1  UNL1       -0.0188
     20  C16       -4.3580    3.2880    0.3190 C.1     1  UNL1       -0.1191
     21  C17       -3.3100    2.5500    0.6430 C.2     1  UNL1       -0.0088
     22  N3        -2.9480   -0.9990   -0.6990 N.ar    1  UNL1       -0.2323
     23 H          -1.8362   -4.0753   -1.3707 H       1  UNL1        0.0293
     24 H          -2.6559   -3.0554   -2.5287 H       1  UNL1        0.0293
     25 H          -3.5204   -3.6709   -1.1406 H       1  UNL1        0.0293
     26 H          -0.4154   -2.9511    0.0144 H       1  UNL1        0.0689
     27 H           2.1822   -2.7383    0.3469 H       1  UNL1        0.0654
     28 H           4.3679   -2.2363   -0.5231 H       1  UNL1        0.0619
     29 H           5.2345   -0.0026   -0.4491 H       1  UNL1        0.0625
     30 H           5.9329    1.8507   -0.3044 H       1  UNL1        0.1453
     31 H           5.6536    3.4759    0.1297 H       1  UNL1        0.1453
     32 H           1.7379    1.2861    1.3817 H       1  UNL1        0.0662
     33 H          -5.0458    0.6215   -1.2835 H       1  UNL1        0.0631
     34 H          -6.0938    3.0755   -0.8539 H       1  UNL1        0.0706
     35 H          -2.5213    2.8214    1.2507 H       1  UNL1        0.0713
@<TRIPOS>BOND
     1     1     2    1
     2     2     3   ar
     3     2    22   ar
     4     3     4   ar
     5     4     5    1
     6     4    15   ar
     7     5     6    1
     8     6     7   ar
     9     6    14   ar
    10     7     8   ar
    11     8     9   ar
    12     9    10   ar
    13    10    11    1
    14    10    14   ar
    15    11    12   am
    16    11    13    2
    17    15    16   ar
    18    16    17    1
    19    16    22   ar
    20    17    18    2
    21    17    21    1
    22    18    19    1
    23    19    20    2
    24    20    21    2
    25     1    23    1
    26     1    24    1
    27     1    25    1
    28     3    26    1
    29     7    27    1
    30     8    28    1
    31     9    29    1
    32    12    30    1
    33    12    31    1
    34    14    32    1
    35    18    33    1
    36    19    34    1
    37    21    35    1
@<TRIPOS>MOLECULE
../data/bude_mols_rdkit_confs2/molecule_52.pdb
 35 37 0 0 0
SMALL
GASTEIGER

@<TRIPOS>ATOM
      1  C1         1.9660   -0.8250    2.4400 C.3     1  UNL1       -0.0221
      2  C2         1.8570   -0.3000    1.0530 C.ar    1  UNL1        0.0457
      3  C3         0.6050    0.0840    0.6110 C.ar    1  UNL1        0.0215
      4  C4         0.5030    0.5710   -0.6720 C.ar    1  UNL1        0.2241
      5  O1        -0.7620    0.9560   -1.1100 O.3     1  UNL1       -0.4379
      6  C5        -1.8860    0.8630   -0.3050 C.ar    1  UNL1        0.1311
      7  C6        -2.3140    1.8760    0.5270 C.ar    1  UNL1       -0.0192
      8  C7        -3.4360    1.7630    1.3210 C.ar    1  UNL1       -0.0576
      9  C8        -4.1590    0.6030    1.2890 C.ar    1  UNL1       -0.0494
     10  C9        -3.7510   -0.4470    0.4550 C.ar    1  UNL1        0.0400
     11  C10       -4.5370   -1.6670    0.4410 C.2     1  UNL1        0.2416
     12  N1        -5.6830   -1.7690    1.2580 N.am    1  UNL1       -0.3253
     13  O2        -4.2150   -2.6310   -0.2860 O.2     1  UNL1       -0.2704
     14  C11       -2.6240   -0.2920   -0.3230 C.ar    1  UNL1       -0.0072
     15  N2         1.5920    0.6570   -1.4420 N.ar    1  UNL1       -0.1928
     16  C12        2.8190    0.2890   -1.0310 C.ar    1  UNL1        0.1643
     17  C13        3.9850    0.3970   -1.8990 C.2     1  UNL1        0.0274
     18  C14        5.2360    0.0750   -1.6270 C.2     1  UNL1       -0.0429
     19  C15        6.0800    0.3530   -2.8010 C.2     1  UNL1       -0.0188
     20  C16        5.2290    0.8100   -3.6950 C.1     1  UNL1       -0.1191
     21  C17        3.9790    0.8970   -3.2660 C.2     1  UNL1       -0.0088
     22  N3         2.9040   -0.1860    0.2290 N.ar    1  UNL1       -0.2323
     23 H           0.9999   -0.8207    2.8999 H       1  UNL1        0.0293
     24 H           2.6324   -0.2065    3.0041 H       1  UNL1        0.0293
     25 H           2.3442   -1.8256    2.4139 H       1  UNL1        0.0293
     26 H          -0.2237    0.0082    1.2213 H       1  UNL1        0.0689
     27 H          -1.7728    2.7542    0.5567 H       1  UNL1        0.0654
     28 H          -3.7259    2.5434    1.9310 H       1  UNL1        0.0619
     29 H          -5.0014    0.5010    1.8763 H       1  UNL1        0.0625
     30 H          -5.9453   -1.0152    1.8344 H       1  UNL1        0.1453
     31 H          -6.2203   -2.5940    1.2516 H       1  UNL1        0.1453
     32 H          -2.3274   -1.0672   -0.9363 H       1  UNL1        0.0662
     33 H           5.5705   -0.3116   -0.7305 H       1  UNL1        0.0631
     34 H           7.0987    0.2207   -2.8996 H       1  UNL1        0.0706
     35 H           3.1651    1.2484   -3.7943 H       1  UNL1        0.0713
@<TRIPOS>BOND
     1     1     2    1
     2     2     3   ar
     3     2    22   ar
     4     3     4   ar
     5     4     5    1
     6     4    15   ar
     7     5     6    1
     8     6     7   ar
     9     6    14   ar
    10     7     8   ar
    11     8     9   ar
    12     9    10   ar
    13    10    11    1
    14    10    14   ar
    15    11    12   am
    16    11    13    2
    17    15    16   ar
    18    16    17    1
    19    16    22   ar
    20    17    18    2
    21    17    21    1
    22    18    19    1
    23    19    20    2
    24    20    21    2
    25     1    23    1
    26     1    24    1
    27     1    25    1
    28     3    26    1
    29     7    27    1
    30     8    28    1
    31     9    29    1
    32    12    30    1
    33    12    31    1
    34    14    32    1
    35    18    33    1
    36    19    34    1
    37    21    35    1
@<TRIPOS>MOLECULE
../data/bude_mols_rdkit_confs2/molecule_52.pdb
 35 37 0 0 0
SMALL
GASTEIGER

@<TRIPOS>ATOM
      1  C1        -3.2170    3.6260   -0.6300 C.3     1  UNL1       -0.0221
      2  C2        -2.4920    2.3170   -0.4320 C.ar    1  UNL1        0.0457
      3  C3        -1.1400    2.3090   -0.2150 C.ar    1  UNL1        0.0215
      4  C4        -0.4820    1.0750   -0.0330 C.ar    1  UNL1        0.2241
      5  O1         0.8520    1.1690    0.1740 O.3     1  UNL1       -0.4379
      6  C5         1.7330    0.1420    0.3790 C.ar    1  UNL1        0.1311
      7  C6         1.4140   -1.1930    0.4120 C.ar    1  UNL1       -0.0192
      8  C7         2.3480   -2.2160    0.6260 C.ar    1  UNL1       -0.0576
      9  C8         3.6680   -1.8840    0.8150 C.ar    1  UNL1       -0.0494
     10  C9         4.0140   -0.5530    0.7870 C.ar    1  UNL1        0.0400
     11  C10        5.4270   -0.1950    0.9900 C.2     1  UNL1        0.2416
     12  N1         5.8500    1.1620    0.9730 N.am    1  UNL1       -0.3253
     13  O2         6.3040   -1.0750    1.1860 O.2     1  UNL1       -0.2704
     14  C11        3.1010    0.4470    0.5790 C.ar    1  UNL1       -0.0072
     15  N2        -1.2230   -0.0120   -0.0830 N.ar    1  UNL1       -0.1928
     16  C12       -2.5440   -0.0300   -0.2930 C.ar    1  UNL1        0.1643
     17  C13       -3.2690   -1.2850   -0.3290 C.2     1  UNL1        0.0274
     18  C14       -4.5570   -1.4740   -0.5230 C.2     1  UNL1       -0.0429
     19  C15       -4.8500   -2.9210   -0.4790 C.2     1  UNL1       -0.0188
     20  C16       -3.6770   -3.4700   -0.2580 C.1     1  UNL1       -0.1191
     21  C17       -2.6830   -2.6000   -0.1530 C.2     1  UNL1       -0.0088
     22  N3        -3.1770    1.1620   -0.4680 N.ar    1  UNL1       -0.2323
     23 H          -2.5177    4.4337   -0.5698 H       1  UNL1        0.0293
     24 H          -3.9606    3.7405    0.1308 H       1  UNL1        0.0293
     25 H          -3.6866    3.6317   -1.5914 H       1  UNL1        0.0293
     26 H          -0.6098    3.1939   -0.1850 H       1  UNL1        0.0689
     27 H           0.4270   -1.4593    0.2707 H       1  UNL1        0.0654
     28 H           2.0489   -3.2036    0.6414 H       1  UNL1        0.0619
     29 H           4.3805   -2.6135    0.9737 H       1  UNL1        0.0625
     30 H           5.1938    1.8803    0.8226 H       1  UNL1        0.1453
     31 H           6.7992    1.3835    1.1116 H       1  UNL1        0.1453
     32 H           3.4130    1.4307    0.5680 H       1  UNL1        0.0662
     33 H          -5.2528   -0.7284   -0.6810 H       1  UNL1        0.0631
     34 H          -5.7617   -3.3904   -0.5947 H       1  UNL1        0.0706
     35 H          -1.6887   -2.8155    0.0198 H       1  UNL1        0.0713
@<TRIPOS>BOND
     1     1     2    1
     2     2     3   ar
     3     2    22   ar
     4     3     4   ar
     5     4     5    1
     6     4    15   ar
     7     5     6    1
     8     6     7   ar
     9     6    14   ar
    10     7     8   ar
    11     8     9   ar
    12     9    10   ar
    13    10    11    1
    14    10    14   ar
    15    11    12   am
    16    11    13    2
    17    15    16   ar
    18    16    17    1
    19    16    22   ar
    20    17    18    2
    21    17    21    1
    22    18    19    1
    23    19    20    2
    24    20    21    2
    25     1    23    1
    26     1    24    1
    27     1    25    1
    28     3    26    1
    29     7    27    1
    30     8    28    1
    31     9    29    1
    32    12    30    1
    33    12    31    1
    34    14    32    1
    35    18    33    1
    36    19    34    1
    37    21    35    1
@<TRIPOS>MOLECULE
../data/bude_mols_rdkit_confs2/molecule_52.pdb
 35 37 0 0 0
SMALL
GASTEIGER

@<TRIPOS>ATOM
      1  C1         2.4840    3.4790    1.6770 C.3     1  UNL1       -0.0221
      2  C2         2.0730    2.1900    0.9800 C.ar    1  UNL1        0.0457
      3  C3         0.8100    1.7530    0.8880 C.ar    1  UNL1        0.0215
      4  C4         0.5200    0.5170    0.2850 C.ar    1  UNL1        0.2241
      5  O1        -0.6160   -0.0870    0.1340 O.3     1  UNL1       -0.4379
      6  C5        -1.7690   -0.6810   -0.0690 C.ar    1  UNL1        0.1311
      7  C6        -1.9810   -2.0070    0.0730 C.ar    1  UNL1       -0.0192
      8  C7        -3.1530   -2.6230   -0.1250 C.ar    1  UNL1       -0.0576
      9  C8        -4.2090   -1.8410   -0.4900 C.ar    1  UNL1       -0.0494
     10  C9        -4.0550   -0.5010   -0.6390 C.ar    1  UNL1        0.0400
     11  C10       -5.2850    0.3200   -1.0310 C.2     1  UNL1        0.2416
     12  N1        -6.1470    0.5270    0.1200 N.am    1  UNL1       -0.3253
     13  O2        -5.5940    0.7510   -2.1180 O.2     1  UNL1       -0.2704
     14  C11       -2.8620    0.0410   -0.4290 C.ar    1  UNL1       -0.0072
     15  N2         1.6550   -0.1550   -0.1760 N.ar    1  UNL1       -0.1928
     16  C12        2.8490    0.3020   -0.0710 C.ar    1  UNL1        0.1643
     17  C13        3.9860   -0.5790   -0.4640 C.2     1  UNL1        0.0274
     18  C14        5.2840   -0.3530   -0.6110 C.2     1  UNL1       -0.0429
     19  C15        5.9340   -1.6060   -1.0190 C.2     1  UNL1       -0.0188
     20  C16        4.9990   -2.4610   -1.1320 C.1     1  UNL1       -0.1191
     21  C17        3.7970   -2.0360   -0.8680 C.2     1  UNL1       -0.0088
     22  N3         3.1140    1.4760    0.5150 N.ar    1  UNL1       -0.2323
     23 H           1.6105    3.9933    2.0197 H       1  UNL1        0.0293
     24 H           3.0179    4.1015    0.9897 H       1  UNL1        0.0293
     25 H           3.1126    3.2484    2.5117 H       1  UNL1        0.0293
     26 H           0.0416    2.3302    1.2640 H       1  UNL1        0.0689
     27 H          -1.1780   -2.5903    0.3558 H       1  UNL1        0.0654
     28 H          -3.2528   -3.6433   -0.0068 H       1  UNL1        0.0619
     29 H          -5.1324   -2.2716   -0.6542 H       1  UNL1        0.0625
     30 H          -5.8862    0.1720    1.0005 H       1  UNL1        0.1453
     31 H          -6.9919    1.0222    0.0195 H       1  UNL1        0.1453
     32 H          -2.7595    1.0613   -0.5449 H       1  UNL1        0.0662
     33 H           5.7585    0.5515   -0.4636 H       1  UNL1        0.0631
     34 H           6.9415   -1.7605   -1.1806 H       1  UNL1        0.0706
     35 H           2.9137   -2.5671   -0.9206 H       1  UNL1        0.0713
@<TRIPOS>BOND
     1     1     2    1
     2     2     3   ar
     3     2    22   ar
     4     3     4   ar
     5     4     5    1
     6     4    15   ar
     7     5     6    1
     8     6     7   ar
     9     6    14   ar
    10     7     8   ar
    11     8     9   ar
    12     9    10   ar
    13    10    11    1
    14    10    14   ar
    15    11    12   am
    16    11    13    2
    17    15    16   ar
    18    16    17    1
    19    16    22   ar
    20    17    18    2
    21    17    21    1
    22    18    19    1
    23    19    20    2
    24    20    21    2
    25     1    23    1
    26     1    24    1
    27     1    25    1
    28     3    26    1
    29     7    27    1
    30     8    28    1
    31     9    29    1
    32    12    30    1
    33    12    31    1
    34    14    32    1
    35    18    33    1
    36    19    34    1
    37    21    35    1
@<TRIPOS>MOLECULE
../data/bude_mols_rdkit_confs2/molecule_52.pdb
 35 37 0 0 0
SMALL
GASTEIGER

@<TRIPOS>ATOM
      1  C1        -2.3560   -2.4240    2.7250 C.3     1  UNL1       -0.0221
      2  C2        -2.0110   -1.2960    1.8100 C.ar    1  UNL1        0.0457
      3  C3        -0.7300   -0.7940    1.7480 C.ar    1  UNL1        0.0215
      4  C4        -0.4630    0.2460    0.8880 C.ar    1  UNL1        0.2241
      5  O1         0.8300    0.7600    0.8180 O.3     1  UNL1       -0.4379
      6  C5         1.7910    0.1760    0.0030 C.ar    1  UNL1        0.1311
      7  C6         1.5100   -0.9270   -0.7560 C.ar    1  UNL1       -0.0192
      8  C7         2.5030   -1.4630   -1.5450 C.ar    1  UNL1       -0.0576
      9  C8         3.7570   -0.9010   -1.5710 C.ar    1  UNL1       -0.0494
     10  C9         4.0540    0.2050   -0.8160 C.ar    1  UNL1        0.0400
     11  C10        5.3890    0.7820   -0.8610 C.2     1  UNL1        0.2416
     12  N1         5.7620    1.9210   -0.1010 N.am    1  UNL1       -0.3253
     13  O2         6.2740    0.2760   -1.5930 O.2     1  UNL1       -0.2704
     14  C11        3.0480    0.7280   -0.0320 C.ar    1  UNL1       -0.0072
     15  N2        -1.4720    0.7260    0.1450 N.ar    1  UNL1       -0.1928
     16  C12       -2.7290    0.2550    0.1880 C.ar    1  UNL1        0.1643
     17  C13       -3.8030    0.8010   -0.6340 C.2     1  UNL1        0.0274
     18  C14       -3.7140    1.7940   -1.5040 C.2     1  UNL1       -0.0429
     19  C15       -5.0400    2.0220   -2.1150 C.2     1  UNL1       -0.0188
     20  C16       -5.8040    1.1020   -1.5480 C.1     1  UNL1       -0.1191
     21  C17       -5.1910    0.3680   -0.6660 C.2     1  UNL1       -0.0088
     22  N3        -2.9660   -0.7610    1.0340 N.ar    1  UNL1       -0.2323
     23 H          -1.4826   -2.7254    3.2647 H       1  UNL1        0.0293
     24 H          -2.7231   -3.2492    2.1512 H       1  UNL1        0.0293
     25 H          -3.1095   -2.1059    3.4149 H       1  UNL1        0.0293
     26 H           0.0179   -1.1918    2.3375 H       1  UNL1        0.0689
     27 H           0.5690   -1.3504   -0.7375 H       1  UNL1        0.0654
     28 H           2.3037   -2.2948   -2.1224 H       1  UNL1        0.0619
     29 H           4.4875   -1.3182   -2.1687 H       1  UNL1        0.0625
     30 H           5.1048    2.3557    0.4892 H       1  UNL1        0.1453
     31 H           6.6780    2.2764   -0.1640 H       1  UNL1        0.1453
     32 H           3.2455    1.5597    0.5462 H       1  UNL1        0.0662
     33 H          -2.8558    2.3244   -1.7211 H       1  UNL1        0.0631
     34 H          -5.3068    2.7301   -2.8168 H       1  UNL1        0.0706
     35 H          -5.6114   -0.3820   -0.0952 H       1  UNL1        0.0713
@<TRIPOS>BOND
     1     1     2    1
     2     2     3   ar
     3     2    22   ar
     4     3     4   ar
     5     4     5    1
     6     4    15   ar
     7     5     6    1
     8     6     7   ar
     9     6    14   ar
    10     7     8   ar
    11     8     9   ar
    12     9    10   ar
    13    10    11    1
    14    10    14   ar
    15    11    12   am
    16    11    13    2
    17    15    16   ar
    18    16    17    1
    19    16    22   ar
    20    17    18    2
    21    17    21    1
    22    18    19    1
    23    19    20    2
    24    20    21    2
    25     1    23    1
    26     1    24    1
    27     1    25    1
    28     3    26    1
    29     7    27    1
    30     8    28    1
    31     9    29    1
    32    12    30    1
    33    12    31    1
    34    14    32    1
    35    18    33    1
    36    19    34    1
    37    21    35    1
@<TRIPOS>MOLECULE
../data/bude_mols_rdkit_confs2/molecule_52.pdb
 35 37 0 0 0
SMALL
GASTEIGER

@<TRIPOS>ATOM
      1  C1        -2.8670   -3.4220   -0.1290 C.3     1  UNL1       -0.0221
      2  C2        -2.3500   -2.0570   -0.3470 C.ar    1  UNL1        0.0457
      3  C3        -1.0190   -1.7740   -0.6400 C.ar    1  UNL1        0.0215
      4  C4        -0.5890   -0.4800   -0.8340 C.ar    1  UNL1        0.2241
      5  O1         0.7250   -0.2500   -1.1200 O.3     1  UNL1       -0.4379
      6  C5         1.7390   -0.1250   -0.1790 C.ar    1  UNL1        0.1311
      7  C6         1.5530   -0.2260    1.1630 C.ar    1  UNL1       -0.0192
      8  C7         2.6410   -0.0830    2.0060 C.ar    1  UNL1       -0.0576
      9  C8         3.9080    0.1600    1.5070 C.ar    1  UNL1       -0.0494
     10  C9         4.1130    0.2660    0.1310 C.ar    1  UNL1        0.0400
     11  C10        5.4490    0.5240   -0.3960 C.2     1  UNL1        0.2416
     12  N1         6.5610    0.7040    0.4300 N.am    1  UNL1       -0.3253
     13  O2         5.5930    0.5850   -1.6430 O.2     1  UNL1       -0.2704
     14  C11        3.0190    0.1190   -0.6690 C.ar    1  UNL1       -0.0072
     15  N2        -1.5110    0.4940   -0.7280 N.ar    1  UNL1       -0.1928
     16  C12       -2.8080    0.2570   -0.4450 C.ar    1  UNL1        0.1643
     17  C13       -3.7790    1.3520   -0.3360 C.2     1  UNL1        0.0274
     18  C14       -3.5700    2.6490   -0.4810 C.2     1  UNL1       -0.0429
     19  C15       -4.8500    3.3590   -0.2790 C.2     1  UNL1       -0.0188
     20  C16       -5.6820    2.4100    0.0540 C.1     1  UNL1       -0.1191
     21  C17       -5.1950    1.1950   -0.0390 C.2     1  UNL1       -0.0088
     22  N3        -3.1980   -1.0170   -0.2610 N.ar    1  UNL1       -0.2323
     23 H          -2.0685   -4.1266   -0.2327 H       1  UNL1        0.0293
     24 H          -3.6269   -3.6352   -0.8515 H       1  UNL1        0.0293
     25 H          -3.2805   -3.4938    0.8553 H       1  UNL1        0.0293
     26 H          -0.3412   -2.5488   -0.7133 H       1  UNL1        0.0689
     27 H           0.6130   -0.4069    1.5485 H       1  UNL1        0.0654
     28 H           2.5046   -0.1591    3.0261 H       1  UNL1        0.0619
     29 H           4.7046    0.2633    2.1549 H       1  UNL1        0.0625
     30 H           6.4601    0.6583    1.4083 H       1  UNL1        0.1453
     31 H           7.4456    0.8765    0.0339 H       1  UNL1        0.1453
     32 H           3.1463    0.1924   -1.6905 H       1  UNL1        0.0662
     33 H          -2.6638    3.0920   -0.6990 H       1  UNL1        0.0631
     34 H          -5.0413    4.3683   -0.3780 H       1  UNL1        0.0706
     35 H          -5.7111    0.3086    0.0752 H       1  UNL1        0.0713
@<TRIPOS>BOND
     1     1     2    1
     2     2     3   ar
     3     2    22   ar
     4     3     4   ar
     5     4     5    1
     6     4    15   ar
     7     5     6    1
     8     6     7   ar
     9     6    14   ar
    10     7     8   ar
    11     8     9   ar
    12     9    10   ar
    13    10    11    1
    14    10    14   ar
    15    11    12   am
    16    11    13    2
    17    15    16   ar
    18    16    17    1
    19    16    22   ar
    20    17    18    2
    21    17    21    1
    22    18    19    1
    23    19    20    2
    24    20    21    2
    25     1    23    1
    26     1    24    1
    27     1    25    1
    28     3    26    1
    29     7    27    1
    30     8    28    1
    31     9    29    1
    32    12    30    1
    33    12    31    1
    34    14    32    1
    35    18    33    1
    36    19    34    1
    37    21    35    1
@<TRIPOS>MOLECULE
../data/bude_mols_rdkit_confs2/molecule_52.pdb
 35 37 0 0 0
SMALL
GASTEIGER

@<TRIPOS>ATOM
      1  C1        -3.0210   -3.3350    0.3670 C.3     1  UNL1       -0.0221
      2  C2        -2.4790   -2.0010    0.0020 C.ar    1  UNL1        0.0457
      3  C3        -1.3060   -1.9050   -0.7380 C.ar    1  UNL1        0.0215
      4  C4        -0.8360   -0.6510   -1.0570 C.ar    1  UNL1        0.2241
      5  O1         0.3320   -0.5590   -1.7930 O.3     1  UNL1       -0.4379
      6  C5         1.5950   -0.5950   -1.2740 C.ar    1  UNL1        0.1311
      7  C6         2.2270   -1.8180   -1.1450 C.ar    1  UNL1       -0.0192
      8  C7         3.5090   -1.9040   -0.6230 C.ar    1  UNL1       -0.0576
      9  C8         4.1420   -0.7220   -0.2330 C.ar    1  UNL1       -0.0494
     10  C9         3.5270    0.4990   -0.3550 C.ar    1  UNL1        0.0400
     11  C10        4.2080    1.7120    0.0590 C.2     1  UNL1        0.2416
     12  N1         5.5350    1.6290    0.6000 N.am    1  UNL1       -0.3253
     13  O2         3.6660    2.8440   -0.0440 O.2     1  UNL1       -0.2704
     14  C11        2.2520    0.5670   -0.8760 C.ar    1  UNL1       -0.0072
     15  N2        -1.5060    0.4430   -0.6560 N.ar    1  UNL1       -0.1928
     16  C12       -2.6430    0.3670    0.0620 C.ar    1  UNL1        0.1643
     17  C13       -3.3230    1.5910    0.4670 C.2     1  UNL1        0.0274
     18  C14       -2.9340    2.8260    0.2000 C.2     1  UNL1       -0.0429
     19  C15       -3.8790    3.7820    0.7770 C.2     1  UNL1       -0.0188
     20  C16       -4.7360    3.0150    1.4340 C.1     1  UNL1       -0.1191
     21  C17       -4.5520    1.7220    1.2370 C.2     1  UNL1       -0.0088
     22  N3        -3.0980   -0.8560    0.3700 N.ar    1  UNL1       -0.2323
     23 H          -2.3803   -4.0988   -0.0216 H       1  UNL1        0.0293
     24 H          -4.0013   -3.4471   -0.0469 H       1  UNL1        0.0293
     25 H          -3.0718   -3.4200    1.4324 H       1  UNL1        0.0293
     26 H          -0.8004   -2.7523   -1.0405 H       1  UNL1        0.0689
     27 H           1.7386   -2.6776   -1.4409 H       1  UNL1        0.0654
     28 H           3.9819   -2.8161   -0.5255 H       1  UNL1        0.0619
     29 H           5.0964   -0.7676    0.1569 H       1  UNL1        0.0625
     30 H           5.9765    0.7535    0.6889 H       1  UNL1        0.1453
     31 H           6.0036    2.4475    0.8821 H       1  UNL1        0.1453
     32 H           1.7832    1.4814   -0.9713 H       1  UNL1        0.0662
     33 H          -2.0890    3.0782   -0.3360 H       1  UNL1        0.0631
     34 H          -3.8782    4.8105    0.6922 H       1  UNL1        0.0706
     35 H          -5.1599    0.9551    1.5645 H       1  UNL1        0.0713
@<TRIPOS>BOND
     1     1     2    1
     2     2     3   ar
     3     2    22   ar
     4     3     4   ar
     5     4     5    1
     6     4    15   ar
     7     5     6    1
     8     6     7   ar
     9     6    14   ar
    10     7     8   ar
    11     8     9   ar
    12     9    10   ar
    13    10    11    1
    14    10    14   ar
    15    11    12   am
    16    11    13    2
    17    15    16   ar
    18    16    17    1
    19    16    22   ar
    20    17    18    2
    21    17    21    1
    22    18    19    1
    23    19    20    2
    24    20    21    2
    25     1    23    1
    26     1    24    1
    27     1    25    1
    28     3    26    1
    29     7    27    1
    30     8    28    1
    31     9    29    1
    32    12    30    1
    33    12    31    1
    34    14    32    1
    35    18    33    1
    36    19    34    1
    37    21    35    1
@<TRIPOS>MOLECULE
../data/bude_mols_rdkit_confs2/molecule_52.pdb
 35 37 0 0 0
SMALL
GASTEIGER

@<TRIPOS>ATOM
      1  C1        -2.8850   -3.1900    0.8580 C.3     1  UNL1       -0.0221
      2  C2        -2.3510   -1.9410    0.2330 C.ar    1  UNL1        0.0457
      3  C3        -1.1790   -1.9880   -0.4880 C.ar    1  UNL1        0.0215
      4  C4        -0.7220   -0.8140   -1.0480 C.ar    1  UNL1        0.2241
      5  O1         0.4770   -0.8670   -1.7840 O.3     1  UNL1       -0.4379
      6  C5         1.7000   -0.7690   -1.0980 C.ar    1  UNL1        0.1311
      7  C6         2.3240   -1.9150   -0.6370 C.ar    1  UNL1       -0.0192
      8  C7         3.5320   -1.8610    0.0440 C.ar    1  UNL1       -0.0576
      9  C8         4.1150   -0.6240    0.2600 C.ar    1  UNL1       -0.0494
     10  C9         3.5270    0.5280   -0.1810 C.ar    1  UNL1        0.0400
     11  C10        4.1710    1.8050    0.0650 C.2     1  UNL1        0.2416
     12  N1         5.4090    1.8080    0.7660 N.am    1  UNL1       -0.3253
     13  O2         3.6550    2.8970   -0.3280 O.2     1  UNL1       -0.2704
     14  C11        2.3180    0.4250   -0.8590 C.ar    1  UNL1       -0.0072
     15  N2        -1.3970    0.3360   -0.8950 N.ar    1  UNL1       -0.1928
     16  C12       -2.5410    0.3850   -0.1920 C.ar    1  UNL1        0.1643
     17  C13       -3.2850    1.6420   -0.0210 C.2     1  UNL1        0.0274
     18  C14       -4.4140    1.7960    0.6480 C.2     1  UNL1       -0.0429
     19  C15       -4.8130    3.2000    0.5690 C.2     1  UNL1       -0.0188
     20  C16       -3.9500    3.7230   -0.2860 C.1     1  UNL1       -0.1191
     21  C17       -2.9180    2.9400   -0.5540 C.2     1  UNL1       -0.0088
     22  N3        -2.9770   -0.7640    0.3490 N.ar    1  UNL1       -0.2323
     23 H          -2.2293   -4.0068    0.6393 H       1  UNL1        0.0293
     24 H          -3.8578   -3.3982    0.4640 H       1  UNL1        0.0293
     25 H          -2.9501   -3.0588    1.9179 H       1  UNL1        0.0293
     26 H          -0.6601   -2.8723   -0.6053 H       1  UNL1        0.0689
     27 H           1.8804   -2.8318   -0.8036 H       1  UNL1        0.0654
     28 H           3.9858   -2.7240    0.3820 H       1  UNL1        0.0619
     29 H           5.0133   -0.5708    0.7651 H       1  UNL1        0.0625
     30 H           5.8053    0.9592    1.0688 H       1  UNL1        0.1453
     31 H           5.8694    2.6589    0.9483 H       1  UNL1        0.1453
     32 H           1.8672    1.2896   -1.1969 H       1  UNL1        0.0662
     33 H          -4.9277    1.0504    1.1431 H       1  UNL1        0.0631
     34 H          -5.5860    3.6720    1.0638 H       1  UNL1        0.0706
     35 H          -2.0428    3.1967   -1.0369 H       1  UNL1        0.0713
@<TRIPOS>BOND
     1     1     2    1
     2     2     3   ar
     3     2    22   ar
     4     3     4   ar
     5     4     5    1
     6     4    15   ar
     7     5     6    1
     8     6     7   ar
     9     6    14   ar
    10     7     8   ar
    11     8     9   ar
    12     9    10   ar
    13    10    11    1
    14    10    14   ar
    15    11    12   am
    16    11    13    2
    17    15    16   ar
    18    16    17    1
    19    16    22   ar
    20    17    18    2
    21    17    21    1
    22    18    19    1
    23    19    20    2
    24    20    21    2
    25     1    23    1
    26     1    24    1
    27     1    25    1
    28     3    26    1
    29     7    27    1
    30     8    28    1
    31     9    29    1
    32    12    30    1
    33    12    31    1
    34    14    32    1
    35    18    33    1
    36    19    34    1
    37    21    35    1
@<TRIPOS>MOLECULE
../data/bude_mols_rdkit_confs2/molecule_52.pdb
 35 37 0 0 0
SMALL
GASTEIGER

@<TRIPOS>ATOM
      1  C1        -1.6530   -2.6750   -1.5630 C.3     1  UNL1       -0.0221
      2  C2        -1.7270   -1.4350   -0.7480 C.ar    1  UNL1        0.0457
      3  C3        -0.5790   -0.8810   -0.1900 C.ar    1  UNL1        0.0215
      4  C4        -0.6260    0.2690    0.5690 C.ar    1  UNL1        0.2241
      5  O1         0.4790    0.8640    1.1470 O.3     1  UNL1       -0.4379
      6  C5         1.7610    0.4070    1.0530 C.ar    1  UNL1        0.1311
      7  C6         2.2820   -0.4790    1.9700 C.ar    1  UNL1       -0.0192
      8  C7         3.5770   -0.9410    1.8750 C.ar    1  UNL1       -0.0576
      9  C8         4.3420   -0.4800    0.8190 C.ar    1  UNL1       -0.0494
     10  C9         3.8350    0.4180   -0.1200 C.ar    1  UNL1        0.0400
     11  C10        4.6490    0.8900   -1.2190 C.2     1  UNL1        0.2416
     12  N1         5.9840    0.4350   -1.3440 N.am    1  UNL1       -0.3253
     13  O2         4.1760    1.6880   -2.0430 O.2     1  UNL1       -0.2704
     14  C11        2.5370    0.8590    0.0040 C.ar    1  UNL1       -0.0072
     15  N2        -1.8360    0.8300    0.7440 N.ar    1  UNL1       -0.1928
     16  C12       -2.9650    0.3350    0.2300 C.ar    1  UNL1        0.1643
     17  C13       -4.2500    1.0060    0.4660 C.2     1  UNL1        0.0274
     18  C14       -5.4370    0.6600    0.0410 C.2     1  UNL1       -0.0429
     19  C15       -6.4220    1.6240    0.5220 C.2     1  UNL1       -0.0188
     20  C16       -5.7050    2.4890    1.2190 C.1     1  UNL1       -0.1191
     21  C17       -4.4240    2.2240    1.2490 C.2     1  UNL1       -0.0088
     22  N3        -2.8800   -0.7880   -0.5060 N.ar    1  UNL1       -0.2323
     23 H          -0.6370   -3.0063   -1.6169 H       1  UNL1        0.0293
     24 H          -2.0159   -2.4755   -2.5496 H       1  UNL1        0.0293
     25 H          -2.2528   -3.4362   -1.1094 H       1  UNL1        0.0293
     26 H           0.3304   -1.3425   -0.3483 H       1  UNL1        0.0689
     27 H           1.6875   -0.8052    2.7480 H       1  UNL1        0.0654
     28 H           3.9610   -1.6053    2.5651 H       1  UNL1        0.0619
     29 H           5.3152   -0.8097    0.7232 H       1  UNL1        0.0625
     30 H           6.3519   -0.1982   -0.6860 H       1  UNL1        0.1453
     31 H           6.5443    0.7518   -2.0889 H       1  UNL1        0.1453
     32 H           2.1463    1.5231   -0.6825 H       1  UNL1        0.0662
     33 H          -5.6450   -0.1651   -0.5429 H       1  UNL1        0.0631
     34 H          -7.4406    1.6292    0.3566 H       1  UNL1        0.0706
     35 H          -3.6879    2.7657    1.7283 H       1  UNL1        0.0713
@<TRIPOS>BOND
     1     1     2    1
     2     2     3   ar
     3     2    22   ar
     4     3     4   ar
     5     4     5    1
     6     4    15   ar
     7     5     6    1
     8     6     7   ar
     9     6    14   ar
    10     7     8   ar
    11     8     9   ar
    12     9    10   ar
    13    10    11    1
    14    10    14   ar
    15    11    12   am
    16    11    13    2
    17    15    16   ar
    18    16    17    1
    19    16    22   ar
    20    17    18    2
    21    17    21    1
    22    18    19    1
    23    19    20    2
    24    20    21    2
    25     1    23    1
    26     1    24    1
    27     1    25    1
    28     3    26    1
    29     7    27    1
    30     8    28    1
    31     9    29    1
    32    12    30    1
    33    12    31    1
    34    14    32    1
    35    18    33    1
    36    19    34    1
    37    21    35    1
@<TRIPOS>MOLECULE
../data/bude_mols_rdkit_confs2/molecule_52.pdb
 35 37 0 0 0
SMALL
GASTEIGER

@<TRIPOS>ATOM
      1  C1        -2.8100    3.3370    0.4540 C.3     1  UNL1       -0.0221
      2  C2        -2.3940    1.9600    0.0770 C.ar    1  UNL1        0.0457
      3  C3        -1.1030    1.7140   -0.3710 C.ar    1  UNL1        0.0215
      4  C4        -0.6830    0.4480   -0.7290 C.ar    1  UNL1        0.2241
      5  O1         0.5980    0.2970   -1.1570 O.3     1  UNL1       -0.4379
      6  C5         1.7250    0.1240   -0.4400 C.ar    1  UNL1        0.1311
      7  C6         1.7220    0.0760    0.9320 C.ar    1  UNL1       -0.0192
      8  C7         2.9200   -0.1050    1.6450 C.ar    1  UNL1       -0.0576
      9  C8         4.1120   -0.2370    0.9660 C.ar    1  UNL1       -0.0494
     10  C9         4.1210   -0.1900   -0.4080 C.ar    1  UNL1        0.0400
     11  C10        5.3560   -0.3250   -1.1570 C.2     1  UNL1        0.2416
     12  N1         6.6140   -0.5060   -0.5050 N.am    1  UNL1       -0.3253
     13  O2         5.3030   -0.2800   -2.4090 O.2     1  UNL1       -0.2704
     14  C11        2.9410   -0.0130   -1.0720 C.ar    1  UNL1       -0.0072
     15  N2        -1.5950   -0.5380   -0.6200 N.ar    1  UNL1       -0.1928
     16  C12       -2.8500   -0.3210   -0.1890 C.ar    1  UNL1        0.1643
     17  C13       -3.8220   -1.4240   -0.0820 C.2     1  UNL1        0.0274
     18  C14       -5.0670   -1.3530    0.3210 C.2     1  UNL1       -0.0429
     19  C15       -5.6350   -2.7030    0.2560 C.2     1  UNL1       -0.0188
     20  C16       -4.6590   -3.4430   -0.2450 C.1     1  UNL1       -0.1191
     21  C17       -3.5350   -2.8100   -0.4220 C.2     1  UNL1       -0.0088
     22  N3        -3.2570    0.9220    0.1610 N.ar    1  UNL1       -0.2323
     23 H          -1.9879    4.0080    0.3170 H       1  UNL1        0.0293
     24 H          -3.1135    3.3496    1.4800 H       1  UNL1        0.0293
     25 H          -3.6279    3.6442   -0.1637 H       1  UNL1        0.0293
     26 H          -0.4379    2.5002   -0.4384 H       1  UNL1        0.0689
     27 H           0.8318    0.1737    1.4449 H       1  UNL1        0.0654
     28 H           2.9068   -0.1390    2.6764 H       1  UNL1        0.0619
     29 H           4.9932   -0.3704    1.4862 H       1  UNL1        0.0625
     30 H           6.6584   -0.5417    0.4779 H       1  UNL1        0.1453
     31 H           7.4366   -0.5951   -1.0385 H       1  UNL1        0.1453
     32 H           2.9615    0.0199   -2.1033 H       1  UNL1        0.0662
     33 H          -5.5593   -0.4998    0.6289 H       1  UNL1        0.0631
     34 H          -6.5804   -3.0069    0.5369 H       1  UNL1        0.0706
     35 H          -2.6349   -3.2056   -0.7357 H       1  UNL1        0.0713
@<TRIPOS>BOND
     1     1     2    1
     2     2     3   ar
     3     2    22   ar
     4     3     4   ar
     5     4     5    1
     6     4    15   ar
     7     5     6    1
     8     6     7   ar
     9     6    14   ar
    10     7     8   ar
    11     8     9   ar
    12     9    10   ar
    13    10    11    1
    14    10    14   ar
    15    11    12   am
    16    11    13    2
    17    15    16   ar
    18    16    17    1
    19    16    22   ar
    20    17    18    2
    21    17    21    1
    22    18    19    1
    23    19    20    2
    24    20    21    2
    25     1    23    1
    26     1    24    1
    27     1    25    1
    28     3    26    1
    29     7    27    1
    30     8    28    1
    31     9    29    1
    32    12    30    1
    33    12    31    1
    34    14    32    1
    35    18    33    1
    36    19    34    1
    37    21    35    1
@<TRIPOS>MOLECULE
../data/bude_mols_rdkit_confs2/molecule_52.pdb
 35 37 0 0 0
SMALL
GASTEIGER

@<TRIPOS>ATOM
      1  C1         3.2720   -3.1590   -0.4660 C.3     1  UNL1       -0.0221
      2  C2         2.6450   -1.8200   -0.2270 C.ar    1  UNL1        0.0457
      3  C3         1.2660   -1.6980   -0.1960 C.ar    1  UNL1        0.0215
      4  C4         0.6200   -0.4930    0.0190 C.ar    1  UNL1        0.2241
      5  O1        -0.6640   -0.2340    0.0730 O.3     1  UNL1       -0.4379
      6  C5        -1.9120   -0.6520    0.0080 C.ar    1  UNL1        0.1311
      7  C6        -2.3260   -1.9370   -0.2150 C.ar    1  UNL1       -0.0192
      8  C7        -3.6580   -2.2490   -0.2610 C.ar    1  UNL1       -0.0576
      9  C8        -4.6250   -1.3040   -0.0890 C.ar    1  UNL1       -0.0494
     10  C9        -4.2350    0.0150    0.1400 C.ar    1  UNL1        0.0400
     11  C10       -5.2470    1.0630    0.3300 C.2     1  UNL1        0.2416
     12  N1        -4.8050    2.3920    0.5600 N.am    1  UNL1       -0.3253
     13  O2        -6.4560    0.7250    0.2790 O.2     1  UNL1       -0.2704
     14  C11       -2.9100    0.3300    0.1870 C.ar    1  UNL1       -0.0072
     15  N2         1.4760    0.5770    0.2020 N.ar    1  UNL1       -0.1928
     16  C12        2.7950    0.4660    0.1730 C.ar    1  UNL1        0.1643
     17  C13        3.5880    1.6840    0.3820 C.2     1  UNL1        0.0274
     18  C14        3.1390    2.9070    0.5990 C.2     1  UNL1       -0.0429
     19  C15        4.3180    3.7880    0.7460 C.2     1  UNL1       -0.0188
     20  C16        5.3440    2.9890    0.5470 C.1     1  UNL1       -0.1191
     21  C17        5.0390    1.7270    0.3800 C.2     1  UNL1       -0.0088
     22  N3         3.3800   -0.7210   -0.0380 N.ar    1  UNL1       -0.2323
     23 H           2.5052   -3.8947   -0.5909 H       1  UNL1        0.0293
     24 H           3.8843   -3.4207    0.3715 H       1  UNL1        0.0293
     25 H           3.8745   -3.1182   -1.3493 H       1  UNL1        0.0293
     26 H           0.6936   -2.5446   -0.3398 H       1  UNL1        0.0689
     27 H          -1.6241   -2.6814   -0.3504 H       1  UNL1        0.0654
     28 H          -3.9380   -3.2277   -0.4308 H       1  UNL1        0.0619
     29 H          -5.6242   -1.5592   -0.1274 H       1  UNL1        0.0625
     30 H          -3.8415    2.5923    0.5885 H       1  UNL1        0.1453
     31 H          -5.4619    3.1135    0.6910 H       1  UNL1        0.1453
     32 H          -2.6299    1.3086    0.3573 H       1  UNL1        0.0662
     33 H           2.1495    3.1945    0.6555 H       1  UNL1        0.0631
     34 H           4.3324    4.7982    0.9565 H       1  UNL1        0.0706
     35 H           5.6898    0.9336    0.2705 H       1  UNL1        0.0713
@<TRIPOS>BOND
     1     1     2    1
     2     2     3   ar
     3     2    22   ar
     4     3     4   ar
     5     4     5    1
     6     4    15   ar
     7     5     6    1
     8     6     7   ar
     9     6    14   ar
    10     7     8   ar
    11     8     9   ar
    12     9    10   ar
    13    10    11    1
    14    10    14   ar
    15    11    12   am
    16    11    13    2
    17    15    16   ar
    18    16    17    1
    19    16    22   ar
    20    17    18    2
    21    17    21    1
    22    18    19    1
    23    19    20    2
    24    20    21    2
    25     1    23    1
    26     1    24    1
    27     1    25    1
    28     3    26    1
    29     7    27    1
    30     8    28    1
    31     9    29    1
    32    12    30    1
    33    12    31    1
    34    14    32    1
    35    18    33    1
    36    19    34    1
    37    21    35    1
@<TRIPOS>MOLECULE
../data/bude_mols_rdkit_confs2/molecule_52.pdb
 35 37 0 0 0
SMALL
GASTEIGER

@<TRIPOS>ATOM
      1  C1        -1.4160    0.7660    3.5330 C.3     1  UNL1       -0.0221
      2  C2        -1.4720    0.1620    2.1610 C.ar    1  UNL1        0.0457
      3  C3        -0.3460   -0.4770    1.6420 C.ar    1  UNL1        0.0215
      4  C4        -0.4230   -1.0240    0.3800 C.ar    1  UNL1        0.2241
      5  O1         0.6950   -1.6590   -0.1350 O.3     1  UNL1       -0.4379
      6  C5         1.7270   -0.9670   -0.7860 C.ar    1  UNL1        0.1311
      7  C6         1.6610   -0.7740   -2.1500 C.ar    1  UNL1       -0.0192
      8  C7         2.6620   -0.0970   -2.8110 C.ar    1  UNL1       -0.0576
      9  C8         3.7620    0.4110   -2.1430 C.ar    1  UNL1       -0.0494
     10  C9         3.8180    0.2130   -0.7790 C.ar    1  UNL1        0.0400
     11  C10        4.9670    0.7400   -0.0560 C.2     1  UNL1        0.2416
     12  N1         5.0620    0.5690    1.3630 N.am    1  UNL1       -0.3253
     13  O2         5.8900    1.3440   -0.6180 O.2     1  UNL1       -0.2704
     14  C11        2.8210   -0.4620   -0.1140 C.ar    1  UNL1       -0.0072
     15  N2        -1.5760   -0.9210   -0.3000 N.ar    1  UNL1       -0.1928
     16  C12       -2.6730   -0.3140    0.1730 C.ar    1  UNL1        0.1643
     17  C13       -3.8860   -0.2430   -0.6260 C.2     1  UNL1        0.0274
     18  C14       -5.0460    0.3110   -0.3210 C.2     1  UNL1       -0.0429
     19  C15       -5.9790    0.1320   -1.4490 C.2     1  UNL1       -0.0188
     20  C16       -5.2750   -0.4970   -2.3450 C.1     1  UNL1       -0.1191
     21  C17       -4.0420   -0.7960   -1.9640 C.2     1  UNL1       -0.0088
     22  N3        -2.5820    0.2160    1.4070 N.ar    1  UNL1       -0.2323
     23 H          -0.4442    0.6092    3.9523 H       1  UNL1        0.0293
     24 H          -2.1524    0.3036    4.1566 H       1  UNL1        0.0293
     25 H          -1.6115    1.8160    3.4687 H       1  UNL1        0.0293
     26 H           0.5255   -0.5386    2.1913 H       1  UNL1        0.0689
     27 H           0.8547   -1.1400   -2.6800 H       1  UNL1        0.0654
     28 H           2.5896    0.0349   -3.8320 H       1  UNL1        0.0619
     29 H           4.5091    0.9167   -2.6441 H       1  UNL1        0.0625
     30 H           4.3502    0.0947    1.8504 H       1  UNL1        0.1453
     31 H           5.8391    0.9258    1.8509 H       1  UNL1        0.1453
     32 H           2.8926   -0.5932    0.9071 H       1  UNL1        0.0662
     33 H          -5.2644    0.7923    0.5654 H       1  UNL1        0.0631
     34 H          -6.9633    0.4355   -1.5131 H       1  UNL1        0.0706
     35 H          -3.3345   -1.3161   -2.5062 H       1  UNL1        0.0713
@<TRIPOS>BOND
     1     1     2    1
     2     2     3   ar
     3     2    22   ar
     4     3     4   ar
     5     4     5    1
     6     4    15   ar
     7     5     6    1
     8     6     7   ar
     9     6    14   ar
    10     7     8   ar
    11     8     9   ar
    12     9    10   ar
    13    10    11    1
    14    10    14   ar
    15    11    12   am
    16    11    13    2
    17    15    16   ar
    18    16    17    1
    19    16    22   ar
    20    17    18    2
    21    17    21    1
    22    18    19    1
    23    19    20    2
    24    20    21    2
    25     1    23    1
    26     1    24    1
    27     1    25    1
    28     3    26    1
    29     7    27    1
    30     8    28    1
    31     9    29    1
    32    12    30    1
    33    12    31    1
    34    14    32    1
    35    18    33    1
    36    19    34    1
    37    21    35    1
