@<TRIPOS>MOLECULE
../data/bude_mols_rdkit_confs2/molecule_42.pdb
 34 35 0 0 0
SMALL
GASTEIGER

@<TRIPOS>ATOM
      1 C          -6.4430    0.2240   -0.8530 C.3     1  UNL1        0.0125
      2 C          -5.2080    0.1310   -0.0130 C.2     1  UNL1        0.2141
      3 O          -5.3570   -0.0250    1.2180 O.2     1  UNL1       -0.2758
      4 N          -3.9160    0.2130   -0.5600 N.am    1  UNL1       -0.2857
      5 C          -2.6770    0.1410    0.1390 C.ar    1  UNL1        0.0336
      6 C          -1.4940    0.1110   -0.6190 C.ar    1  UNL1       -0.0370
      7 C          -0.2780    0.0500   -0.0060 C.ar    1  UNL1       -0.0176
      8 C          -0.1140    0.0120    1.3610 C.ar    1  UNL1        0.1286
      9 O           1.1430   -0.0510    1.9450 O.3     1  UNL1       -0.4557
     10 C           2.2600   -0.0760    1.0920 C.ar    1  UNL1        0.1366
     11 C           2.8820    1.0700    0.6790 C.ar    1  UNL1        0.0018
     12 C           3.9790    1.0590   -0.1580 C.ar    1  UNL1        0.0345
     13 N           4.5910    2.2690   -0.5610 N.pl3   1  UNL1       -0.3577
     14 C           4.4410   -0.1770   -0.5760 C.ar    1  UNL1        0.0364
     15 C           3.8300   -1.3550   -0.1720 C.ar    1  UNL1        0.2784
     16 N           4.3240   -2.6110   -0.6150 N.pl3   1  UNL1        0.0798
     17 O           3.7930   -3.6790   -0.2660 O.2     1  UNL1        0.0414
     18 O           5.4110   -2.6820   -1.4470 O.co2   1  UNL1       -0.5760
     19 C           2.7350   -1.2920    0.6660 C.ar    1  UNL1        0.0579
     20 C          -1.2680    0.0410    2.1070 C.ar    1  UNL1       -0.0176
     21 C          -2.5270    0.1040    1.4970 C.ar    1  UNL1       -0.0370
     22 H          -7.3070    0.1366   -0.2279 H       1  UNL1        0.0323
     23 H          -6.4437   -0.5658   -1.5749 H       1  UNL1        0.0323
     24 H          -6.4614    1.1678   -1.3569 H       1  UNL1        0.0323
     25 H          -3.8612    0.3337   -1.5355 H       1  UNL1        0.1548
     26 H          -1.5464    0.1354   -1.6494 H       1  UNL1        0.0637
     27 H           0.5664    0.0313   -0.5990 H       1  UNL1        0.0655
     28 H           2.5167    1.9781    1.0060 H       1  UNL1        0.0673
     29 H           4.2349    3.1303   -0.2437 H       1  UNL1        0.1423
     30 H           5.3730    2.2499   -1.1588 H       1  UNL1        0.1423
     31 H           5.2594   -0.2232   -1.2030 H       1  UNL1        0.0704
     32 H           2.2718   -2.1615    0.9734 H       1  UNL1        0.0723
     33 H          -1.2055    0.0159    3.1368 H       1  UNL1        0.0655
     34 H          -3.3695    0.1231    2.0927 H       1  UNL1        0.0637
@<TRIPOS>UNITY_ATOM_ATTR
16 1
charge 1
18 1
charge -1
@<TRIPOS>BOND
     1     1     2    1
     2     2     3    2
     3     2     4   am
     4     4     5    1
     5     5     6   ar
     6     5    21   ar
     7     6     7   ar
     8     7     8   ar
     9     8     9    1
    10     8    20   ar
    11     9    10    1
    12    10    11   ar
    13    10    19   ar
    14    11    12   ar
    15    12    13    1
    16    12    14   ar
    17    14    15   ar
    18    15    16    1
    19    15    19   ar
    20    16    17    2
    21    16    18    1
    22    20    21   ar
    23     1    22    1
    24     1    23    1
    25     1    24    1
    26     4    25    1
    27     6    26    1
    28     7    27    1
    29    11    28    1
    30    13    29    1
    31    13    30    1
    32    14    31    1
    33    19    32    1
    34    20    33    1
    35    21    34    1
@<TRIPOS>MOLECULE
../data/bude_mols_rdkit_confs2/molecule_42.pdb
 34 35 0 0 0
SMALL
GASTEIGER

@<TRIPOS>ATOM
      1 C           6.4270   -0.4040   -0.7260 C.3     1  UNL1        0.0125
      2 C           5.0370   -0.7240   -0.2010 C.2     1  UNL1        0.2141
      3 O           4.7540   -1.8980    0.0690 O.2     1  UNL1       -0.2758
      4 N           4.0790    0.2920   -0.0220 N.am    1  UNL1       -0.2857
      5 C           2.7600    0.1370    0.4500 C.ar    1  UNL1        0.0336
      6 C           2.0410    1.3140    0.7040 C.ar    1  UNL1       -0.0370
      7 C           0.7570    1.3070    1.1550 C.ar    1  UNL1       -0.0176
      8 C           0.1450    0.1170    1.3680 C.ar    1  UNL1        0.1286
      9 O          -1.1660    0.1250    1.8290 O.3     1  UNL1       -0.4557
     10 C          -2.2650    0.1310    0.9800 C.ar    1  UNL1        0.1366
     11 C          -2.7670   -1.1000    0.5990 C.ar    1  UNL1        0.0018
     12 C          -3.8740   -1.1580   -0.2550 C.ar    1  UNL1        0.0345
     13 N          -4.4060   -2.4110   -0.6590 N.pl3   1  UNL1       -0.3577
     14 C          -4.4340    0.0240   -0.6930 C.ar    1  UNL1        0.0364
     15 C          -3.9610    1.2680   -0.3350 C.ar    1  UNL1        0.2784
     16 N          -4.5590    2.4700   -0.8020 N.pl3   1  UNL1        0.0798
     17 O          -4.1700    3.5930   -0.5080 O.2     1  UNL1        0.0414
     18 O          -5.6410    2.3540   -1.6370 O.co2   1  UNL1       -0.5760
     19 C          -2.8580    1.2860    0.5170 C.ar    1  UNL1        0.0579
     20 C           0.8100   -1.0450    1.1330 C.ar    1  UNL1       -0.0176
     21 C           2.1130   -1.0430    0.6750 C.ar    1  UNL1       -0.0370
     22 H           7.0004   -1.3052   -0.7898 H       1  UNL1        0.0323
     23 H           6.9108    0.2802   -0.0606 H       1  UNL1        0.0323
     24 H           6.3484    0.0382   -1.6972 H       1  UNL1        0.0323
     25 H           4.3601    1.2074   -0.2507 H       1  UNL1        0.1548
     26 H           2.5042    2.2219    0.5424 H       1  UNL1        0.0637
     27 H           0.2580    2.1929    1.3317 H       1  UNL1        0.0655
     28 H          -2.3286   -1.9691    0.9418 H       1  UNL1        0.0673
     29 H          -3.9957   -3.2465   -0.3382 H       1  UNL1        0.1423
     30 H          -5.1852   -2.4443   -1.2599 H       1  UNL1        0.1423
     31 H          -5.2505   -0.0258   -1.3222 H       1  UNL1        0.0704
     32 H          -2.4716    2.1964    0.8117 H       1  UNL1        0.0723
     33 H           0.3328   -1.9447    1.2998 H       1  UNL1        0.0655
     34 H           2.5988   -1.9370    0.5024 H       1  UNL1        0.0637
@<TRIPOS>UNITY_ATOM_ATTR
16 1
charge 1
18 1
charge -1
@<TRIPOS>BOND
     1     1     2    1
     2     2     3    2
     3     2     4   am
     4     4     5    1
     5     5     6   ar
     6     5    21   ar
     7     6     7   ar
     8     7     8   ar
     9     8     9    1
    10     8    20   ar
    11     9    10    1
    12    10    11   ar
    13    10    19   ar
    14    11    12   ar
    15    12    13    1
    16    12    14   ar
    17    14    15   ar
    18    15    16    1
    19    15    19   ar
    20    16    17    2
    21    16    18    1
    22    20    21   ar
    23     1    22    1
    24     1    23    1
    25     1    24    1
    26     4    25    1
    27     6    26    1
    28     7    27    1
    29    11    28    1
    30    13    29    1
    31    13    30    1
    32    14    31    1
    33    19    32    1
    34    20    33    1
    35    21    34    1
@<TRIPOS>MOLECULE
../data/bude_mols_rdkit_confs2/molecule_42.pdb
 34 35 0 0 0
SMALL
GASTEIGER

@<TRIPOS>ATOM
      1 C          -6.4210    0.6990   -0.6380 C.3     1  UNL1        0.0125
      2 C          -5.0400    0.1410   -0.7670 C.2     1  UNL1        0.2141
      3 O          -4.7200   -0.3810   -1.8550 O.2     1  UNL1       -0.2758
      4 N          -4.1000    0.1790    0.2740 N.am    1  UNL1       -0.2857
      5 C          -2.7810   -0.3180    0.2500 C.ar    1  UNL1        0.0336
      6 C          -2.0420   -0.1520    1.4320 C.ar    1  UNL1       -0.0370
      7 C          -0.7420   -0.5850    1.5630 C.ar    1  UNL1       -0.0176
      8 C          -0.1060   -1.2070    0.5220 C.ar    1  UNL1        0.1286
      9 O           1.2030   -1.6340    0.6780 O.3     1  UNL1       -0.4557
     10 C           2.2820   -0.8160    0.3720 C.ar    1  UNL1        0.1366
     11 C           2.0950    0.4640   -0.1040 C.ar    1  UNL1        0.0018
     12 C           3.1760    1.2940   -0.4140 C.ar    1  UNL1        0.0345
     13 N           2.9380    2.6260   -0.9090 N.pl3   1  UNL1       -0.3577
     14 C           4.4580    0.8120   -0.2360 C.ar    1  UNL1        0.0364
     15 C           4.6730   -0.4740    0.2420 C.ar    1  UNL1        0.2784
     16 N           5.9860   -0.9830    0.4290 N.pl3   1  UNL1        0.0798
     17 O           6.9430   -0.2430    0.1530 O.2     1  UNL1        0.0414
     18 O           6.1570   -2.2570    0.9030 O.co2   1  UNL1       -0.5760
     19 C           3.5680   -1.2690    0.5390 C.ar    1  UNL1        0.0579
     20 C          -0.8150   -1.3780   -0.6420 C.ar    1  UNL1       -0.0176
     21 C          -2.1430   -0.9350   -0.7740 C.ar    1  UNL1       -0.0370
     22 H          -6.9511    0.5550   -1.5562 H       1  UNL1        0.0323
     23 H          -6.3641    1.7449   -0.4193 H       1  UNL1        0.0323
     24 H          -6.9362    0.1965    0.1538 H       1  UNL1        0.0323
     25 H          -4.3942    0.5993    1.1143 H       1  UNL1        0.1548
     26 H          -2.4918    0.3137    2.2356 H       1  UNL1        0.0637
     27 H          -0.2420   -0.4395    2.4540 H       1  UNL1        0.0655
     28 H           1.1344    0.8178   -0.2345 H       1  UNL1        0.0673
     29 H           2.0158    2.9493   -1.0283 H       1  UNL1        0.1423
     30 H           3.6976    3.2128   -1.1279 H       1  UNL1        0.1423
     31 H           5.2653    1.4143   -0.4608 H       1  UNL1        0.0704
     32 H           3.7201   -2.2258    0.8947 H       1  UNL1        0.0723
     33 H          -0.3602   -1.8448   -1.4422 H       1  UNL1        0.0655
     34 H          -2.6404   -1.0823   -1.6662 H       1  UNL1        0.0637
@<TRIPOS>UNITY_ATOM_ATTR
16 1
charge 1
18 1
charge -1
@<TRIPOS>BOND
     1     1     2    1
     2     2     3    2
     3     2     4   am
     4     4     5    1
     5     5     6   ar
     6     5    21   ar
     7     6     7   ar
     8     7     8   ar
     9     8     9    1
    10     8    20   ar
    11     9    10    1
    12    10    11   ar
    13    10    19   ar
    14    11    12   ar
    15    12    13    1
    16    12    14   ar
    17    14    15   ar
    18    15    16    1
    19    15    19   ar
    20    16    17    2
    21    16    18    1
    22    20    21   ar
    23     1    22    1
    24     1    23    1
    25     1    24    1
    26     4    25    1
    27     6    26    1
    28     7    27    1
    29    11    28    1
    30    13    29    1
    31    13    30    1
    32    14    31    1
    33    19    32    1
    34    20    33    1
    35    21    34    1
@<TRIPOS>MOLECULE
../data/bude_mols_rdkit_confs2/molecule_42.pdb
 34 35 0 0 0
SMALL
GASTEIGER

@<TRIPOS>ATOM
      1 C           6.3880   -0.8780   -0.2480 C.3     1  UNL1        0.0125
      2 C           5.0490   -0.2570   -0.5690 C.2     1  UNL1        0.2141
      3 O           4.8920    0.2680   -1.6880 O.2     1  UNL1       -0.2758
      4 N           4.0750   -0.3300    0.4530 N.am    1  UNL1       -0.2857
      5 C           2.7800    0.2020    0.2920 C.ar    1  UNL1        0.0336
      6 C           2.0060    0.3350    1.4520 C.ar    1  UNL1       -0.0370
      7 C           0.7300    0.8300    1.3790 C.ar    1  UNL1       -0.0176
      8 C           0.1330    1.2200    0.2070 C.ar    1  UNL1        0.1286
      9 O          -1.1510    1.7210    0.1150 O.3     1  UNL1       -0.4557
     10 C          -2.2690    0.9360   -0.0830 C.ar    1  UNL1        0.1366
     11 C          -2.0940   -0.4270   -0.1960 C.ar    1  UNL1        0.0018
     12 C          -3.2020   -1.2580   -0.3980 C.ar    1  UNL1        0.0345
     13 N          -3.0100   -2.6570   -0.5120 N.pl3   1  UNL1       -0.3577
     14 C          -4.4400   -0.6670   -0.4750 C.ar    1  UNL1        0.0364
     15 C          -4.6370    0.6870   -0.3660 C.ar    1  UNL1        0.2784
     16 N          -5.9580    1.2600   -0.4540 N.pl3   1  UNL1        0.0798
     17 O          -6.0670    2.4970   -0.3460 O.2     1  UNL1        0.0414
     18 O          -7.0120    0.4220   -0.6510 O.co2   1  UNL1       -0.5760
     19 C          -3.5290    1.4870   -0.1670 C.ar    1  UNL1        0.0579
     20 C           0.8990    1.0860   -0.9300 C.ar    1  UNL1       -0.0176
     21 C           2.2020    0.5840   -0.8840 C.ar    1  UNL1       -0.0370
     22 H           7.0433   -0.7659   -1.0864 H       1  UNL1        0.0323
     23 H           6.2567   -1.9182   -0.0345 H       1  UNL1        0.0323
     24 H           6.8125   -0.3898    0.6043 H       1  UNL1        0.0323
     25 H           4.3088   -0.7663    1.3040 H       1  UNL1        0.1548
     26 H           2.3984    0.0590    2.3657 H       1  UNL1        0.0637
     27 H           0.1886    0.9139    2.2536 H       1  UNL1        0.0655
     28 H          -1.1477   -0.8337   -0.1317 H       1  UNL1        0.0673
     29 H          -2.1035   -3.0361   -0.4504 H       1  UNL1        0.1423
     30 H          -3.7831   -3.2501   -0.6528 H       1  UNL1        0.1423
     31 H          -5.2633   -1.2716   -0.6222 H       1  UNL1        0.0704
     32 H          -3.6461    2.5087   -0.0803 H       1  UNL1        0.0723
     33 H           0.4997    1.3639   -1.8402 H       1  UNL1        0.0655
     34 H           2.7405    0.5000   -1.7604 H       1  UNL1        0.0637
@<TRIPOS>UNITY_ATOM_ATTR
16 1
charge 1
18 1
charge -1
@<TRIPOS>BOND
     1     1     2    1
     2     2     3    2
     3     2     4   am
     4     4     5    1
     5     5     6   ar
     6     5    21   ar
     7     6     7   ar
     8     7     8   ar
     9     8     9    1
    10     8    20   ar
    11     9    10    1
    12    10    11   ar
    13    10    19   ar
    14    11    12   ar
    15    12    13    1
    16    12    14   ar
    17    14    15   ar
    18    15    16    1
    19    15    19   ar
    20    16    17    2
    21    16    18    1
    22    20    21   ar
    23     1    22    1
    24     1    23    1
    25     1    24    1
    26     4    25    1
    27     6    26    1
    28     7    27    1
    29    11    28    1
    30    13    29    1
    31    13    30    1
    32    14    31    1
    33    19    32    1
    34    20    33    1
    35    21    34    1
@<TRIPOS>MOLECULE
../data/bude_mols_rdkit_confs2/molecule_42.pdb
 34 35 0 0 0
SMALL
GASTEIGER

@<TRIPOS>ATOM
      1 C           6.2580    1.7070    0.0750 C.3     1  UNL1        0.0125
      2 C           4.8770    1.3000   -0.3710 C.2     1  UNL1        0.2141
      3 O           4.4110    1.8980   -1.3570 O.2     1  UNL1       -0.2758
      4 N           4.1430    0.2980    0.2840 N.am    1  UNL1       -0.2857
      5 C           2.8520   -0.1740   -0.0380 C.ar    1  UNL1        0.0336
      6 C           2.1930   -1.0430    0.8450 C.ar    1  UNL1       -0.0370
      7 C           0.9380   -1.5370    0.5710 C.ar    1  UNL1       -0.0176
      8 C           0.2860   -1.1880   -0.5910 C.ar    1  UNL1        0.1286
      9 O          -0.9700   -1.6450   -0.9270 O.3     1  UNL1       -0.4557
     10 C          -2.1450   -1.0290   -0.5970 C.ar    1  UNL1        0.1366
     11 C          -3.3380   -1.5790   -0.9880 C.ar    1  UNL1        0.0018
     12 C          -4.5770   -1.0070   -0.6880 C.ar    1  UNL1        0.0345
     13 N          -5.7710   -1.6310   -1.1240 N.pl3   1  UNL1       -0.3577
     14 C          -4.5700    0.1670    0.0360 C.ar    1  UNL1        0.0364
     15 C          -3.3990    0.7630    0.4540 C.ar    1  UNL1        0.2784
     16 N          -3.4150    1.9740    1.2000 N.pl3   1  UNL1        0.0798
     17 O          -4.4990    2.5120    1.4850 O.2     1  UNL1        0.0414
     18 O          -2.2650    2.5830    1.6250 O.co2   1  UNL1       -0.5760
     19 C          -2.2020    0.1450    0.1240 C.ar    1  UNL1        0.0579
     20 C           0.9220   -0.3430   -1.4530 C.ar    1  UNL1       -0.0176
     21 C           2.1880    0.1540   -1.1740 C.ar    1  UNL1       -0.0370
     22 H           6.6251    2.4826   -0.5642 H       1  UNL1        0.0323
     23 H           6.9129    0.8624    0.0233 H       1  UNL1        0.0323
     24 H           6.2164    2.0649    1.0825 H       1  UNL1        0.0323
     25 H           4.5798   -0.1248    1.0584 H       1  UNL1        0.1548
     26 H           2.6614   -1.3187    1.7223 H       1  UNL1        0.0637
     27 H           0.4815   -2.1745    1.2420 H       1  UNL1        0.0655
     28 H          -3.3203   -2.4572   -1.5297 H       1  UNL1        0.0673
     29 H          -5.7288   -2.4691   -1.6388 H       1  UNL1        0.1423
     30 H          -6.6434   -1.2267   -0.9123 H       1  UNL1        0.1423
     31 H          -5.4699    0.6135    0.2724 H       1  UNL1        0.0704
     32 H          -1.3184    0.5814    0.4304 H       1  UNL1        0.0723
     33 H           0.4526   -0.0678   -2.3299 H       1  UNL1        0.0655
     34 H           2.6366    0.7913   -1.8505 H       1  UNL1        0.0637
@<TRIPOS>UNITY_ATOM_ATTR
16 1
charge 1
18 1
charge -1
@<TRIPOS>BOND
     1     1     2    1
     2     2     3    2
     3     2     4   am
     4     4     5    1
     5     5     6   ar
     6     5    21   ar
     7     6     7   ar
     8     7     8   ar
     9     8     9    1
    10     8    20   ar
    11     9    10    1
    12    10    11   ar
    13    10    19   ar
    14    11    12   ar
    15    12    13    1
    16    12    14   ar
    17    14    15   ar
    18    15    16    1
    19    15    19   ar
    20    16    17    2
    21    16    18    1
    22    20    21   ar
    23     1    22    1
    24     1    23    1
    25     1    24    1
    26     4    25    1
    27     6    26    1
    28     7    27    1
    29    11    28    1
    30    13    29    1
    31    13    30    1
    32    14    31    1
    33    19    32    1
    34    20    33    1
    35    21    34    1
@<TRIPOS>MOLECULE
../data/bude_mols_rdkit_confs2/molecule_42.pdb
 34 35 0 0 0
SMALL
GASTEIGER

@<TRIPOS>ATOM
      1 C           6.3340    0.5250    0.9410 C.3     1  UNL1        0.0125
      2 C           4.8450    0.5040    0.7450 C.2     1  UNL1        0.2141
      3 O           4.2060    1.4820    1.1590 O.2     1  UNL1       -0.2758
      4 N           4.2060   -0.5660    0.1240 N.am    1  UNL1       -0.2857
      5 C           2.8160   -0.7140   -0.1240 C.ar    1  UNL1        0.0336
      6 C           1.8350    0.1720    0.2010 C.ar    1  UNL1       -0.0370
      7 C           0.4830   -0.0300   -0.0690 C.ar    1  UNL1       -0.0176
      8 C           0.0960   -1.1650   -0.6900 C.ar    1  UNL1        0.1286
      9 O          -1.2140   -1.4100   -0.9770 O.3     1  UNL1       -0.4557
     10 C          -2.2690   -0.5760   -0.6870 C.ar    1  UNL1        0.1366
     11 C          -2.7390    0.3980   -1.5230 C.ar    1  UNL1        0.0018
     12 C          -3.8140    1.2060   -1.1630 C.ar    1  UNL1        0.0345
     13 N          -4.2820    2.2020   -2.0380 N.pl3   1  UNL1       -0.3577
     14 C          -4.4120    1.0200    0.0570 C.ar    1  UNL1        0.0364
     15 C          -3.9700    0.0490    0.9310 C.ar    1  UNL1        0.2784
     16 N          -4.5870   -0.1440    2.1910 N.pl3   1  UNL1        0.0798
     17 O          -5.5440    0.5820    2.5020 O.2     1  UNL1        0.0414
     18 O          -4.1750   -1.0960    3.0800 O.co2   1  UNL1       -0.5760
     19 C          -2.8920   -0.7410    0.5360 C.ar    1  UNL1        0.0579
     20 C           1.0460   -2.0990   -1.0420 C.ar    1  UNL1       -0.0176
     21 C           2.3760   -1.8840   -0.7680 C.ar    1  UNL1       -0.0370
     22 H           6.6160    1.4314    1.4348 H       1  UNL1        0.0323
     23 H           6.8198    0.4713   -0.0108 H       1  UNL1        0.0323
     24 H           6.6269   -0.3128    1.5387 H       1  UNL1        0.0323
     25 H           4.7839   -1.3039   -0.1774 H       1  UNL1        0.1548
     26 H           2.1092    1.0462    0.6761 H       1  UNL1        0.0637
     27 H          -0.2149    0.6800    0.2026 H       1  UNL1        0.0655
     28 H          -2.2874    0.5373   -2.4404 H       1  UNL1        0.0673
     29 H          -3.8493    2.3316   -2.9128 H       1  UNL1        0.1423
     30 H          -5.0424    2.7698   -1.7759 H       1  UNL1        0.1423
     31 H          -5.2085    1.6184    0.3264 H       1  UNL1        0.0704
     32 H          -2.5477   -1.4727    1.1771 H       1  UNL1        0.0723
     33 H           0.7562   -2.9687   -1.5161 H       1  UNL1        0.0655
     34 H           3.0683   -2.5987   -1.0417 H       1  UNL1        0.0637
@<TRIPOS>UNITY_ATOM_ATTR
16 1
charge 1
18 1
charge -1
@<TRIPOS>BOND
     1     1     2    1
     2     2     3    2
     3     2     4   am
     4     4     5    1
     5     5     6   ar
     6     5    21   ar
     7     6     7   ar
     8     7     8   ar
     9     8     9    1
    10     8    20   ar
    11     9    10    1
    12    10    11   ar
    13    10    19   ar
    14    11    12   ar
    15    12    13    1
    16    12    14   ar
    17    14    15   ar
    18    15    16    1
    19    15    19   ar
    20    16    17    2
    21    16    18    1
    22    20    21   ar
    23     1    22    1
    24     1    23    1
    25     1    24    1
    26     4    25    1
    27     6    26    1
    28     7    27    1
    29    11    28    1
    30    13    29    1
    31    13    30    1
    32    14    31    1
    33    19    32    1
    34    20    33    1
    35    21    34    1
@<TRIPOS>MOLECULE
../data/bude_mols_rdkit_confs2/molecule_42.pdb
 34 35 0 0 0
SMALL
GASTEIGER

@<TRIPOS>ATOM
      1 C           6.3440   -0.1080    1.7170 C.3     1  UNL1        0.0125
      2 C           4.9630    0.4330    1.3450 C.2     1  UNL1        0.2141
      3 O           4.5940    1.5240    1.8260 O.2     1  UNL1       -0.2758
      4 N           4.1370   -0.2880    0.4810 N.am    1  UNL1       -0.2857
      5 C           2.8430    0.1240    0.0800 C.ar    1  UNL1        0.0336
      6 C           2.1090    1.1340    0.6220 C.ar    1  UNL1       -0.0370
      7 C           0.8360    1.4710    0.1370 C.ar    1  UNL1       -0.0176
      8 C           0.2600    0.7990   -0.9120 C.ar    1  UNL1        0.1286
      9 O          -0.9790    1.1080   -1.4030 O.3     1  UNL1       -0.4557
     10 C          -2.1680    0.5640   -0.9680 C.ar    1  UNL1        0.1366
     11 C          -2.8870    1.1370    0.0530 C.ar    1  UNL1        0.0018
     12 C          -4.0960    0.5840    0.4950 C.ar    1  UNL1        0.0345
     13 N          -4.8380    1.1710    1.5440 N.pl3   1  UNL1       -0.3577
     14 C          -4.5630   -0.5580   -0.1140 C.ar    1  UNL1        0.0364
     15 C          -3.8720   -1.1430   -1.1240 C.ar    1  UNL1        0.2784
     16 N          -4.3880   -2.3220   -1.7280 N.pl3   1  UNL1        0.0798
     17 O          -5.4580   -2.8210   -1.3440 O.2     1  UNL1        0.0414
     18 O          -3.6730   -2.8990   -2.7490 O.co2   1  UNL1       -0.5760
     19 C          -2.6700   -0.5780   -1.5510 C.ar    1  UNL1        0.0579
     20 C           1.0040   -0.2230   -1.4570 C.ar    1  UNL1       -0.0176
     21 C           2.2480   -0.5670   -0.9980 C.ar    1  UNL1       -0.0370
     22 H           6.8273    0.5757    2.3833 H       1  UNL1        0.0323
     23 H           6.9337   -0.2198    0.8312 H       1  UNL1        0.0323
     24 H           6.2374   -1.0584    2.1968 H       1  UNL1        0.0323
     25 H           4.4773   -1.1410    0.1263 H       1  UNL1        0.1548
     26 H           2.5005    1.6681    1.4135 H       1  UNL1        0.0637
     27 H           0.3186    2.2455    0.5814 H       1  UNL1        0.0655
     28 H          -2.5287    1.9933    0.5041 H       1  UNL1        0.0673
     29 H          -4.5081    1.9881    1.9830 H       1  UNL1        0.1423
     30 H          -5.6850    0.7629    1.8361 H       1  UNL1        0.1423
     31 H          -5.4521   -0.9756    0.2023 H       1  UNL1        0.0704
     32 H          -2.1463   -1.0252   -2.3196 H       1  UNL1        0.0723
     33 H           0.6064   -0.7542   -2.2474 H       1  UNL1        0.0655
     34 H           2.7583   -1.3434   -1.4472 H       1  UNL1        0.0637
@<TRIPOS>UNITY_ATOM_ATTR
16 1
charge 1
18 1
charge -1
@<TRIPOS>BOND
     1     1     2    1
     2     2     3    2
     3     2     4   am
     4     4     5    1
     5     5     6   ar
     6     5    21   ar
     7     6     7   ar
     8     7     8   ar
     9     8     9    1
    10     8    20   ar
    11     9    10    1
    12    10    11   ar
    13    10    19   ar
    14    11    12   ar
    15    12    13    1
    16    12    14   ar
    17    14    15   ar
    18    15    16    1
    19    15    19   ar
    20    16    17    2
    21    16    18    1
    22    20    21   ar
    23     1    22    1
    24     1    23    1
    25     1    24    1
    26     4    25    1
    27     6    26    1
    28     7    27    1
    29    11    28    1
    30    13    29    1
    31    13    30    1
    32    14    31    1
    33    19    32    1
    34    20    33    1
    35    21    34    1
@<TRIPOS>MOLECULE
../data/bude_mols_rdkit_confs2/molecule_42.pdb
 34 35 0 0 0
SMALL
GASTEIGER

@<TRIPOS>ATOM
      1 C           6.8170   -0.8010    0.2060 C.3     1  UNL1        0.0125
      2 C           5.3070   -0.9050    0.2560 C.2     1  UNL1        0.2141
      3 O           4.7860   -2.0010    0.5550 O.2     1  UNL1       -0.2758
      4 N           4.4990    0.2170   -0.0310 N.am    1  UNL1       -0.2857
      5 C           3.0880    0.2640   -0.0230 C.ar    1  UNL1        0.0336
      6 C           2.2720   -0.7910    0.2620 C.ar    1  UNL1       -0.0370
      7 C           0.8810   -0.6190    0.2380 C.ar    1  UNL1       -0.0176
      8 C           0.2700    0.5710   -0.0610 C.ar    1  UNL1        0.1286
      9 O          -1.0220    0.8250   -0.1080 O.3     1  UNL1       -0.4557
     10 C          -2.2490    0.4420    0.0090 C.ar    1  UNL1        0.1366
     11 C          -3.2630    1.3970   -0.2210 C.ar    1  UNL1        0.0018
     12 C          -4.5960    1.1210   -0.1300 C.ar    1  UNL1        0.0345
     13 N          -5.5940    2.1090   -0.3690 N.pl3   1  UNL1       -0.3577
     14 C          -4.9730   -0.1520    0.2020 C.ar    1  UNL1        0.0364
     15 C          -4.0240   -1.1170    0.4360 C.ar    1  UNL1        0.2784
     16 N          -4.4120   -2.4400    0.7820 N.pl3   1  UNL1        0.0798
     17 O          -5.6250   -2.7030    0.8680 O.2     1  UNL1        0.0414
     18 O          -3.5270   -3.4450    1.0270 O.co2   1  UNL1       -0.5760
     19 C          -2.6730   -0.8200    0.3400 C.ar    1  UNL1        0.0579
     20 C           1.1530    1.6390   -0.3500 C.ar    1  UNL1       -0.0176
     21 C           2.5130    1.4960   -0.3330 C.ar    1  UNL1       -0.0370
     22 H           7.2481   -1.7489    0.4522 H       1  UNL1        0.0323
     23 H           7.1473   -0.0654    0.9094 H       1  UNL1        0.0323
     24 H           7.1224   -0.5152   -0.7789 H       1  UNL1        0.0323
     25 H           4.9676    1.0520   -0.2601 H       1  UNL1        0.1548
     26 H           2.6767   -1.7115    0.4942 H       1  UNL1        0.0637
     27 H           0.2847   -1.4323    0.4573 H       1  UNL1        0.0655
     28 H          -2.9802    2.3573   -0.4719 H       1  UNL1        0.0673
     29 H          -5.3306    3.0269   -0.6083 H       1  UNL1        0.1423
     30 H          -6.5471    1.8739   -0.2949 H       1  UNL1        0.1423
     31 H          -5.9749   -0.3880    0.2769 H       1  UNL1        0.0704
     32 H          -1.9760   -1.5594    0.5203 H       1  UNL1        0.0723
     33 H           0.7547    2.5621   -0.5828 H       1  UNL1        0.0655
     34 H           3.1169    2.3041   -0.5507 H       1  UNL1        0.0637
@<TRIPOS>UNITY_ATOM_ATTR
16 1
charge 1
18 1
charge -1
@<TRIPOS>BOND
     1     1     2    1
     2     2     3    2
     3     2     4   am
     4     4     5    1
     5     5     6   ar
     6     5    21   ar
     7     6     7   ar
     8     7     8   ar
     9     8     9    1
    10     8    20   ar
    11     9    10    1
    12    10    11   ar
    13    10    19   ar
    14    11    12   ar
    15    12    13    1
    16    12    14   ar
    17    14    15   ar
    18    15    16    1
    19    15    19   ar
    20    16    17    2
    21    16    18    1
    22    20    21   ar
    23     1    22    1
    24     1    23    1
    25     1    24    1
    26     4    25    1
    27     6    26    1
    28     7    27    1
    29    11    28    1
    30    13    29    1
    31    13    30    1
    32    14    31    1
    33    19    32    1
    34    20    33    1
    35    21    34    1
@<TRIPOS>MOLECULE
../data/bude_mols_rdkit_confs2/molecule_42.pdb
 34 35 0 0 0
SMALL
GASTEIGER

@<TRIPOS>ATOM
      1 C           6.0080   -0.0970   -1.7250 C.3     1  UNL1        0.0125
      2 C           4.5440   -0.1280   -1.3320 C.2     1  UNL1        0.2141
      3 O           3.7560   -0.5860   -2.1810 O.2     1  UNL1       -0.2758
      4 N           4.1080    0.3310   -0.0960 N.am    1  UNL1       -0.2857
      5 C           2.7690    0.3370    0.3330 C.ar    1  UNL1        0.0336
      6 C           1.6630    0.0780   -0.4150 C.ar    1  UNL1       -0.0370
      7 C           0.3880    0.1060    0.1460 C.ar    1  UNL1       -0.0176
      8 C           0.1560    0.3920    1.4700 C.ar    1  UNL1        0.1286
      9 O          -1.1260    0.4120    2.0010 O.3     1  UNL1       -0.4557
     10 C          -2.1940    0.1340    1.1570 C.ar    1  UNL1        0.1366
     11 C          -2.7690    1.2060    0.5030 C.ar    1  UNL1        0.0018
     12 C          -3.8310    0.9420   -0.3380 C.ar    1  UNL1        0.0345
     13 N          -4.4200    2.0490   -1.0100 N.pl3   1  UNL1       -0.3577
     14 C          -4.2910   -0.3600   -0.5070 C.ar    1  UNL1        0.0364
     15 C          -3.7070   -1.4210    0.1530 C.ar    1  UNL1        0.2784
     16 N          -4.1760   -2.7640   -0.0170 N.pl3   1  UNL1        0.0798
     17 O          -3.6290   -3.6800    0.5890 O.2     1  UNL1        0.0414
     18 O          -5.2320   -3.0510   -0.8480 O.co2   1  UNL1       -0.5760
     19 C          -2.6470   -1.1640    0.9930 C.ar    1  UNL1        0.0579
     20 C           1.2700    0.6550    2.2340 C.ar    1  UNL1       -0.0176
     21 C           2.5300    0.6290    1.6880 C.ar    1  UNL1       -0.0370
     22 H           6.1209   -0.4949   -2.7118 H       1  UNL1        0.0323
     23 H           6.5749   -0.6870   -1.0355 H       1  UNL1        0.0323
     24 H           6.3614    0.9128   -1.7050 H       1  UNL1        0.0323
     25 H           4.7872    0.6782    0.5264 H       1  UNL1        0.1548
     26 H           1.7703   -0.1435   -1.4172 H       1  UNL1        0.0637
     27 H          -0.4208   -0.0978   -0.4617 H       1  UNL1        0.0655
     28 H          -2.4182    2.1671    0.6379 H       1  UNL1        0.0673
     29 H          -4.0674    2.9568   -0.8657 H       1  UNL1        0.1423
     30 H          -5.1802    1.9073   -1.6194 H       1  UNL1        0.1423
     31 H          -5.0867   -0.5359   -1.1402 H       1  UNL1        0.0704
     32 H          -2.1904   -1.9382    1.5000 H       1  UNL1        0.0723
     33 H           1.1565    0.8758    3.2357 H       1  UNL1        0.0655
     34 H           3.3367    0.8326    2.2986 H       1  UNL1        0.0637
@<TRIPOS>UNITY_ATOM_ATTR
16 1
charge 1
18 1
charge -1
@<TRIPOS>BOND
     1     1     2    1
     2     2     3    2
     3     2     4   am
     4     4     5    1
     5     5     6   ar
     6     5    21   ar
     7     6     7   ar
     8     7     8   ar
     9     8     9    1
    10     8    20   ar
    11     9    10    1
    12    10    11   ar
    13    10    19   ar
    14    11    12   ar
    15    12    13    1
    16    12    14   ar
    17    14    15   ar
    18    15    16    1
    19    15    19   ar
    20    16    17    2
    21    16    18    1
    22    20    21   ar
    23     1    22    1
    24     1    23    1
    25     1    24    1
    26     4    25    1
    27     6    26    1
    28     7    27    1
    29    11    28    1
    30    13    29    1
    31    13    30    1
    32    14    31    1
    33    19    32    1
    34    20    33    1
    35    21    34    1
@<TRIPOS>MOLECULE
../data/bude_mols_rdkit_confs2/molecule_42.pdb
 34 35 0 0 0
SMALL
GASTEIGER

@<TRIPOS>ATOM
      1 C           6.5560    0.8890    0.1370 C.3     1  UNL1        0.0125
      2 C           5.2930    0.0780   -0.0050 C.2     1  UNL1        0.2141
      3 O           5.4280   -1.1330   -0.1710 O.2     1  UNL1       -0.2758
      4 N           4.0210    0.6630    0.0470 N.am    1  UNL1       -0.2857
      5 C           2.7640    0.0250   -0.0750 C.ar    1  UNL1        0.0336
      6 C           1.6200    0.8190    0.1680 C.ar    1  UNL1       -0.0370
      7 C           0.3840    0.2290    0.0500 C.ar    1  UNL1       -0.0176
      8 C           0.2270   -1.0850   -0.2900 C.ar    1  UNL1        0.1286
      9 O          -1.0170   -1.6390   -0.3980 O.3     1  UNL1       -0.4557
     10 C          -2.2100   -1.0110   -0.1980 C.ar    1  UNL1        0.1366
     11 C          -2.7800   -0.9960    1.0560 C.ar    1  UNL1        0.0018
     12 C          -4.0060   -0.3500    1.2550 C.ar    1  UNL1        0.0345
     13 N          -4.5760   -0.3460    2.5570 N.pl3   1  UNL1       -0.3577
     14 C          -4.6240    0.2600    0.1960 C.ar    1  UNL1        0.0364
     15 C          -4.0770    0.2580   -1.0590 C.ar    1  UNL1        0.2784
     16 N          -4.7180    0.8910   -2.1550 N.pl3   1  UNL1        0.0798
     17 O          -4.2600    0.9150   -3.3110 O.2     1  UNL1        0.0414
     18 O          -5.9170    1.5140   -1.9270 O.co2   1  UNL1       -0.5760
     19 C          -2.8520   -0.3920   -1.2380 C.ar    1  UNL1        0.0579
     20 C           1.3480   -1.8310   -0.5200 C.ar    1  UNL1       -0.0176
     21 C           2.6300   -1.2890   -0.4160 C.ar    1  UNL1       -0.0370
     22 H           7.4052    0.2419    0.0666 H       1  UNL1        0.0323
     23 H           6.5596    1.3800    1.0877 H       1  UNL1        0.0323
     24 H           6.5996    1.6207   -0.6425 H       1  UNL1        0.0323
     25 H           3.9991    1.6375    0.1854 H       1  UNL1        0.1548
     26 H           1.7102    1.8139    0.4268 H       1  UNL1        0.0637
     27 H          -0.4574    0.8004    0.2249 H       1  UNL1        0.0655
     28 H          -2.3048   -1.4595    1.8462 H       1  UNL1        0.0673
     29 H          -4.1094   -0.7927    3.3000 H       1  UNL1        0.1423
     30 H          -5.4374    0.1034    2.7159 H       1  UNL1        0.1423
     31 H          -5.5276    0.7346    0.3483 H       1  UNL1        0.0704
     32 H          -2.4213   -0.4058   -2.1757 H       1  UNL1        0.0723
     33 H           1.2439   -2.8247   -0.7783 H       1  UNL1        0.0655
     34 H           3.4624   -1.8724   -0.5941 H       1  UNL1        0.0637
@<TRIPOS>UNITY_ATOM_ATTR
16 1
charge 1
18 1
charge -1
@<TRIPOS>BOND
     1     1     2    1
     2     2     3    2
     3     2     4   am
     4     4     5    1
     5     5     6   ar
     6     5    21   ar
     7     6     7   ar
     8     7     8   ar
     9     8     9    1
    10     8    20   ar
    11     9    10    1
    12    10    11   ar
    13    10    19   ar
    14    11    12   ar
    15    12    13    1
    16    12    14   ar
    17    14    15   ar
    18    15    16    1
    19    15    19   ar
    20    16    17    2
    21    16    18    1
    22    20    21   ar
    23     1    22    1
    24     1    23    1
    25     1    24    1
    26     4    25    1
    27     6    26    1
    28     7    27    1
    29    11    28    1
    30    13    29    1
    31    13    30    1
    32    14    31    1
    33    19    32    1
    34    20    33    1
    35    21    34    1
@<TRIPOS>MOLECULE
../data/bude_mols_rdkit_confs2/molecule_42.pdb
 34 35 0 0 0
SMALL
GASTEIGER

@<TRIPOS>ATOM
      1 C           6.2740    0.3610   -0.8300 C.3     1  UNL1        0.0125
      2 C           4.8840    0.6550   -0.3540 C.2     1  UNL1        0.2141
      3 O           4.5700    1.8490   -0.3080 O.2     1  UNL1       -0.2758
      4 N           3.9850   -0.3360    0.0190 N.am    1  UNL1       -0.2857
      5 C           2.6600   -0.1780    0.4780 C.ar    1  UNL1        0.0336
      6 C           1.9870    1.0150    0.6130 C.ar    1  UNL1       -0.0370
      7 C           0.6870    1.1150    1.0720 C.ar    1  UNL1       -0.0176
      8 C          -0.0060   -0.0140    1.4230 C.ar    1  UNL1        0.1286
      9 O          -1.3330    0.0690    1.8930 O.3     1  UNL1       -0.4557
     10 C          -2.3190   -0.0050    0.8950 C.ar    1  UNL1        0.1366
     11 C          -2.7170    1.1860    0.3360 C.ar    1  UNL1        0.0018
     12 C          -3.6850    1.1180   -0.6440 C.ar    1  UNL1        0.0345
     13 N          -4.1200    2.3470   -1.2460 N.pl3   1  UNL1       -0.3577
     14 C          -4.2360   -0.0770   -1.0540 C.ar    1  UNL1        0.0364
     15 C          -3.8160   -1.2750   -0.4720 C.ar    1  UNL1        0.2784
     16 N          -4.3770   -2.5070   -0.8890 N.pl3   1  UNL1        0.0798
     17 O          -5.2470   -2.5630   -1.7690 O.2     1  UNL1        0.0414
     18 O          -3.9410   -3.6580   -0.2960 O.co2   1  UNL1       -0.5760
     19 C          -2.8480   -1.2180    0.5090 C.ar    1  UNL1        0.0579
     20 C           0.6260   -1.2280    1.3050 C.ar    1  UNL1       -0.0176
     21 C           1.9140   -1.3060    0.8490 C.ar    1  UNL1       -0.0370
     22 H           6.7746    1.2788   -1.0579 H       1  UNL1        0.0323
     23 H           6.2288   -0.2482   -1.7085 H       1  UNL1        0.0323
     24 H           6.8113   -0.1575   -0.0636 H       1  UNL1        0.0323
     25 H           4.3124   -1.2623   -0.0447 H       1  UNL1        0.1548
     26 H           2.4810    1.8842    0.3570 H       1  UNL1        0.0637
     27 H           0.2378    2.0408    1.1504 H       1  UNL1        0.0655
     28 H          -2.3115    2.0867    0.6349 H       1  UNL1        0.0673
     29 H          -3.7289    3.2027   -0.9559 H       1  UNL1        0.1423
     30 H          -4.8093    2.3339   -1.9488 H       1  UNL1        0.1423
     31 H          -4.9586   -0.0865   -1.7907 H       1  UNL1        0.0704
     32 H          -2.5182   -2.0877    0.9561 H       1  UNL1        0.0723
     33 H           0.1235   -2.0916    1.5633 H       1  UNL1        0.0655
     34 H           2.3557   -2.2358    0.7749 H       1  UNL1        0.0637
@<TRIPOS>UNITY_ATOM_ATTR
16 1
charge 1
18 1
charge -1
@<TRIPOS>BOND
     1     1     2    1
     2     2     3    2
     3     2     4   am
     4     4     5    1
     5     5     6   ar
     6     5    21   ar
     7     6     7   ar
     8     7     8   ar
     9     8     9    1
    10     8    20   ar
    11     9    10    1
    12    10    11   ar
    13    10    19   ar
    14    11    12   ar
    15    12    13    1
    16    12    14   ar
    17    14    15   ar
    18    15    16    1
    19    15    19   ar
    20    16    17    2
    21    16    18    1
    22    20    21   ar
    23     1    22    1
    24     1    23    1
    25     1    24    1
    26     4    25    1
    27     6    26    1
    28     7    27    1
    29    11    28    1
    30    13    29    1
    31    13    30    1
    32    14    31    1
    33    19    32    1
    34    20    33    1
    35    21    34    1
@<TRIPOS>MOLECULE
../data/bude_mols_rdkit_confs2/molecule_42.pdb
 34 35 0 0 0
SMALL
GASTEIGER

@<TRIPOS>ATOM
      1 C           6.4530    1.1340    0.6260 C.3     1  UNL1        0.0125
      2 C           5.1340    0.4010    0.7620 C.2     1  UNL1        0.2141
      3 O           4.9510   -0.4120    1.6830 O.2     1  UNL1       -0.2758
      4 N           4.1470    0.6760   -0.1820 N.am    1  UNL1       -0.2857
      5 C           2.8600    0.1110   -0.2340 C.ar    1  UNL1        0.0336
      6 C           2.3040   -0.6890    0.7040 C.ar    1  UNL1       -0.0370
      7 C           1.0190   -1.1970    0.5270 C.ar    1  UNL1       -0.0176
      8 C           0.2370   -0.9380   -0.5730 C.ar    1  UNL1        0.1286
      9 O          -1.0240   -1.4480   -0.7250 O.3     1  UNL1       -0.4557
     10 C          -2.1910   -0.8820   -0.3180 C.ar    1  UNL1        0.1366
     11 C          -3.3730   -1.5480   -0.5600 C.ar    1  UNL1        0.0018
     12 C          -4.6020   -1.0430   -0.1790 C.ar    1  UNL1        0.0345
     13 N          -5.7950   -1.7630   -0.4480 N.pl3   1  UNL1       -0.3577
     14 C          -4.6220    0.1740    0.4660 C.ar    1  UNL1        0.0364
     15 C          -3.4500    0.8590    0.7190 C.ar    1  UNL1        0.2784
     16 N          -3.5330    2.1030    1.3840 N.pl3   1  UNL1        0.0798
     17 O          -2.4710    2.7160    1.6090 O.2     1  UNL1        0.0414
     18 O          -4.7570    2.5840    1.7520 O.co2   1  UNL1       -0.5760
     19 C          -2.2290    0.3280    0.3250 C.ar    1  UNL1        0.0579
     20 C           0.8160   -0.1180   -1.5260 C.ar    1  UNL1       -0.0176
     21 C           2.0800    0.3910   -1.3690 C.ar    1  UNL1       -0.0370
     22 H           7.1131    0.8291    1.4110 H       1  UNL1        0.0323
     23 H           6.2835    2.1884    0.6919 H       1  UNL1        0.0323
     24 H           6.8939    0.9021   -0.3210 H       1  UNL1        0.0323
     25 H           4.3727    1.3305   -0.8819 H       1  UNL1        0.1548
     26 H           2.8353   -0.9248    1.5567 H       1  UNL1        0.0637
     27 H           0.6312   -1.8040    1.2660 H       1  UNL1        0.0655
     28 H          -3.3393   -2.4587   -1.0443 H       1  UNL1        0.0673
     29 H          -5.7524   -2.6310   -0.9107 H       1  UNL1        0.1423
     30 H          -6.6652   -1.3945   -0.1719 H       1  UNL1        0.1423
     31 H          -5.5235    0.5786    0.7637 H       1  UNL1        0.0704
     32 H          -1.3544    0.8418    0.5153 H       1  UNL1        0.0723
     33 H           0.2823    0.1167   -2.3776 H       1  UNL1        0.0655
     34 H           2.4701    0.9980   -2.1068 H       1  UNL1        0.0637
@<TRIPOS>UNITY_ATOM_ATTR
16 1
charge 1
18 1
charge -1
@<TRIPOS>BOND
     1     1     2    1
     2     2     3    2
     3     2     4   am
     4     4     5    1
     5     5     6   ar
     6     5    21   ar
     7     6     7   ar
     8     7     8   ar
     9     8     9    1
    10     8    20   ar
    11     9    10    1
    12    10    11   ar
    13    10    19   ar
    14    11    12   ar
    15    12    13    1
    16    12    14   ar
    17    14    15   ar
    18    15    16    1
    19    15    19   ar
    20    16    17    2
    21    16    18    1
    22    20    21   ar
    23     1    22    1
    24     1    23    1
    25     1    24    1
    26     4    25    1
    27     6    26    1
    28     7    27    1
    29    11    28    1
    30    13    29    1
    31    13    30    1
    32    14    31    1
    33    19    32    1
    34    20    33    1
    35    21    34    1
@<TRIPOS>MOLECULE
../data/bude_mols_rdkit_confs2/molecule_42.pdb
 34 35 0 0 0
SMALL
GASTEIGER

@<TRIPOS>ATOM
      1 C           6.4160    0.4670   -0.8300 C.3     1  UNL1        0.0125
      2 C           5.0150    0.5660   -0.2870 C.2     1  UNL1        0.2141
      3 O           4.6850    1.6640    0.1910 O.2     1  UNL1       -0.2758
      4 N           4.1190   -0.5130   -0.3130 N.am    1  UNL1       -0.2857
      5 C           2.8000   -0.5670    0.1530 C.ar    1  UNL1        0.0336
      6 C           2.1950    0.4530    0.8300 C.ar    1  UNL1       -0.0370
      7 C           0.8880    0.4200    1.2910 C.ar    1  UNL1       -0.0176
      8 C           0.1330   -0.7070    1.0610 C.ar    1  UNL1        0.1286
      9 O          -1.1710   -0.7290    1.5260 O.3     1  UNL1       -0.4557
     10 C          -2.2680   -0.3100    0.8290 C.ar    1  UNL1        0.1366
     11 C          -2.9670   -1.1870    0.0330 C.ar    1  UNL1        0.0018
     12 C          -4.0690   -0.7680   -0.6680 C.ar    1  UNL1        0.0345
     13 N          -4.7800   -1.6840   -1.4850 N.pl3   1  UNL1       -0.3577
     14 C          -4.4870    0.5500   -0.5780 C.ar    1  UNL1        0.0364
     15 C          -3.7960    1.4490    0.2180 C.ar    1  UNL1        0.2784
     16 N          -4.2440    2.7900    0.2930 N.pl3   1  UNL1        0.0798
     17 O          -5.2370    3.1400   -0.3480 O.2     1  UNL1        0.0414
     18 O          -3.5920    3.7240    1.0700 O.co2   1  UNL1       -0.5760
     19 C          -2.6800    1.0240    0.9280 C.ar    1  UNL1        0.0579
     20 C           0.7010   -1.7610    0.3820 C.ar    1  UNL1       -0.0176
     21 C           2.0010   -1.6990   -0.0640 C.ar    1  UNL1       -0.0370
     22 H           6.9142    1.4056   -0.7049 H       1  UNL1        0.0323
     23 H           6.3787    0.2189   -1.8702 H       1  UNL1        0.0323
     24 H           6.9507   -0.2939   -0.3008 H       1  UNL1        0.0323
     25 H           4.4641   -1.3439   -0.7126 H       1  UNL1        0.1548
     26 H           2.7478    1.3056    1.0106 H       1  UNL1        0.0637
     27 H           0.4888    1.2258    1.7973 H       1  UNL1        0.0655
     28 H          -2.6595   -2.1696   -0.0376 H       1  UNL1        0.0673
     29 H          -4.4826   -2.6204   -1.5486 H       1  UNL1        0.1423
     30 H          -5.5709   -1.3834   -1.9884 H       1  UNL1        0.1423
     31 H          -5.3165    0.8632   -1.1061 H       1  UNL1        0.0704
     32 H          -2.1590    1.6865    1.5236 H       1  UNL1        0.0723
     33 H           0.1431   -2.6109    0.2047 H       1  UNL1        0.0655
     34 H           2.3981   -2.5055   -0.5708 H       1  UNL1        0.0637
@<TRIPOS>UNITY_ATOM_ATTR
16 1
charge 1
18 1
charge -1
@<TRIPOS>BOND
     1     1     2    1
     2     2     3    2
     3     2     4   am
     4     4     5    1
     5     5     6   ar
     6     5    21   ar
     7     6     7   ar
     8     7     8   ar
     9     8     9    1
    10     8    20   ar
    11     9    10    1
    12    10    11   ar
    13    10    19   ar
    14    11    12   ar
    15    12    13    1
    16    12    14   ar
    17    14    15   ar
    18    15    16    1
    19    15    19   ar
    20    16    17    2
    21    16    18    1
    22    20    21   ar
    23     1    22    1
    24     1    23    1
    25     1    24    1
    26     4    25    1
    27     6    26    1
    28     7    27    1
    29    11    28    1
    30    13    29    1
    31    13    30    1
    32    14    31    1
    33    19    32    1
    34    20    33    1
    35    21    34    1
@<TRIPOS>MOLECULE
../data/bude_mols_rdkit_confs2/molecule_42.pdb
 34 35 0 0 0
SMALL
GASTEIGER

@<TRIPOS>ATOM
      1 C          -6.4010    1.1160    0.0260 C.3     1  UNL1        0.0125
      2 C          -4.9990    0.7650   -0.3450 C.2     1  UNL1        0.2141
      3 O          -4.5820    1.2460   -1.4130 O.2     1  UNL1       -0.2758
      4 N          -4.1810   -0.0560    0.4480 N.am    1  UNL1       -0.2857
      5 C          -2.8480   -0.4290    0.1530 C.ar    1  UNL1        0.0336
      6 C          -2.1620   -0.1690   -1.0010 C.ar    1  UNL1       -0.0370
      7 C          -0.8280   -0.5870   -1.1690 C.ar    1  UNL1       -0.0176
      8 C          -0.1420   -1.2730   -0.1950 C.ar    1  UNL1        0.1286
      9 O           1.1520   -1.6390   -0.4460 O.3     1  UNL1       -0.4557
     10 C           2.2630   -0.8870   -0.1630 C.ar    1  UNL1        0.1366
     11 C           3.5320   -1.3410   -0.4530 C.ar    1  UNL1        0.0018
     12 C           4.6650   -0.5990   -0.1750 C.ar    1  UNL1        0.0345
     13 N           5.9730   -1.0590   -0.4700 N.pl3   1  UNL1       -0.3577
     14 C           4.5430    0.6430    0.4120 C.ar    1  UNL1        0.0364
     15 C           3.2850    1.1230    0.7130 C.ar    1  UNL1        0.2784
     16 N           3.1340    2.4010    1.3190 N.pl3   1  UNL1        0.0798
     17 O           4.1300    3.0850    1.5770 O.2     1  UNL1        0.0414
     18 O           1.9010    2.8760    1.6160 O.co2   1  UNL1       -0.5760
     19 C           2.1570    0.3570    0.4240 C.ar    1  UNL1        0.0579
     20 C          -0.8280   -1.5350    0.9660 C.ar    1  UNL1       -0.0176
     21 C          -2.1300   -1.1310    1.1370 C.ar    1  UNL1       -0.0370
     22 H          -6.8214    1.7490   -0.7273 H       1  UNL1        0.0323
     23 H          -6.4037    1.6288    0.9651 H       1  UNL1        0.0323
     24 H          -6.9832    0.2219    0.1062 H       1  UNL1        0.0323
     25 H          -4.5693   -0.4030    1.2835 H       1  UNL1        0.1548
     26 H          -2.6313    0.3437   -1.7638 H       1  UNL1        0.0637
     27 H          -0.3474   -0.3704   -2.0562 H       1  UNL1        0.0655
     28 H           3.6401   -2.2680   -0.8934 H       1  UNL1        0.0673
     29 H           6.1020   -1.9404   -0.8892 H       1  UNL1        0.1423
     30 H           6.7524   -0.4971   -0.2557 H       1  UNL1        0.1423
     31 H           5.3817    1.2060    0.6233 H       1  UNL1        0.0704
     32 H           1.2221    0.7285    0.6541 H       1  UNL1        0.0723
     33 H          -0.3547   -2.0468    1.7269 H       1  UNL1        0.0655
     34 H          -2.6020   -1.3527    2.0275 H       1  UNL1        0.0637
@<TRIPOS>UNITY_ATOM_ATTR
16 1
charge 1
18 1
charge -1
@<TRIPOS>BOND
     1     1     2    1
     2     2     3    2
     3     2     4   am
     4     4     5    1
     5     5     6   ar
     6     5    21   ar
     7     6     7   ar
     8     7     8   ar
     9     8     9    1
    10     8    20   ar
    11     9    10    1
    12    10    11   ar
    13    10    19   ar
    14    11    12   ar
    15    12    13    1
    16    12    14   ar
    17    14    15   ar
    18    15    16    1
    19    15    19   ar
    20    16    17    2
    21    16    18    1
    22    20    21   ar
    23     1    22    1
    24     1    23    1
    25     1    24    1
    26     4    25    1
    27     6    26    1
    28     7    27    1
    29    11    28    1
    30    13    29    1
    31    13    30    1
    32    14    31    1
    33    19    32    1
    34    20    33    1
    35    21    34    1
@<TRIPOS>MOLECULE
../data/bude_mols_rdkit_confs2/molecule_42.pdb
 34 35 0 0 0
SMALL
GASTEIGER

@<TRIPOS>ATOM
      1 C           6.3450   -0.5530   -0.6830 C.3     1  UNL1        0.0125
      2 C           4.8430   -0.3860   -0.7050 C.2     1  UNL1        0.2141
      3 O           4.2210   -0.3120   -1.7760 O.2     1  UNL1       -0.2758
      4 N           4.1370   -0.3110    0.5190 N.am    1  UNL1       -0.2857
      5 C           2.7570   -0.1620    0.6720 C.ar    1  UNL1        0.0336
      6 C           1.8160   -0.2340   -0.3000 C.ar    1  UNL1       -0.0370
      7 C           0.4740   -0.0470    0.0100 C.ar    1  UNL1       -0.0176
      8 C           0.0270    0.2140    1.2810 C.ar    1  UNL1        0.1286
      9 O          -1.3040    0.4030    1.6130 O.3     1  UNL1       -0.4557
     10 C          -2.3230    0.3450    0.6780 C.ar    1  UNL1        0.1366
     11 C          -2.7320    1.4650    0.0010 C.ar    1  UNL1        0.0018
     12 C          -3.7460    1.3680   -0.9190 C.ar    1  UNL1        0.0345
     13 N          -4.1240    2.5620   -1.5850 N.pl3   1  UNL1       -0.3577
     14 C          -4.3690    0.1610   -1.1820 C.ar    1  UNL1        0.0364
     15 C          -3.9650   -0.9600   -0.5090 C.ar    1  UNL1        0.2784
     16 N          -4.5770   -2.2060   -0.7520 N.pl3   1  UNL1        0.0798
     17 O          -5.4950   -2.3110   -1.5810 O.2     1  UNL1        0.0414
     18 O          -4.1770   -3.3260   -0.0830 O.co2   1  UNL1       -0.5760
     19 C          -2.9430   -0.8510    0.4150 C.ar    1  UNL1        0.0579
     20 C           0.9780    0.2880    2.2680 C.ar    1  UNL1       -0.0176
     21 C           2.3070    0.1070    1.9820 C.ar    1  UNL1       -0.0370
     22 H           6.7143   -0.5912   -1.6865 H       1  UNL1        0.0323
     23 H           6.5955   -1.4613   -0.1759 H       1  UNL1        0.0323
     24 H           6.7885    0.2753   -0.1710 H       1  UNL1        0.0323
     25 H           4.6712   -0.3696    1.3439 H       1  UNL1        0.1548
     26 H           2.0965   -0.4284   -1.2739 H       1  UNL1        0.0637
     27 H          -0.2194   -0.1073   -0.7520 H       1  UNL1        0.0655
     28 H          -2.2803    2.3751    0.1820 H       1  UNL1        0.0673
     29 H          -3.6639    3.4075   -1.3787 H       1  UNL1        0.1423
     30 H          -4.8465    2.5452   -2.2536 H       1  UNL1        0.1423
     31 H          -5.1295    0.1067   -1.8775 H       1  UNL1        0.0704
     32 H          -2.6364   -1.6953    0.9231 H       1  UNL1        0.0723
     33 H           0.6888    0.4827    3.2393 H       1  UNL1        0.0655
     34 H           2.9974    0.1693    2.7465 H       1  UNL1        0.0637
@<TRIPOS>UNITY_ATOM_ATTR
16 1
charge 1
18 1
charge -1
@<TRIPOS>BOND
     1     1     2    1
     2     2     3    2
     3     2     4   am
     4     4     5    1
     5     5     6   ar
     6     5    21   ar
     7     6     7   ar
     8     7     8   ar
     9     8     9    1
    10     8    20   ar
    11     9    10    1
    12    10    11   ar
    13    10    19   ar
    14    11    12   ar
    15    12    13    1
    16    12    14   ar
    17    14    15   ar
    18    15    16    1
    19    15    19   ar
    20    16    17    2
    21    16    18    1
    22    20    21   ar
    23     1    22    1
    24     1    23    1
    25     1    24    1
    26     4    25    1
    27     6    26    1
    28     7    27    1
    29    11    28    1
    30    13    29    1
    31    13    30    1
    32    14    31    1
    33    19    32    1
    34    20    33    1
    35    21    34    1
@<TRIPOS>MOLECULE
../data/bude_mols_rdkit_confs2/molecule_42.pdb
 34 35 0 0 0
SMALL
GASTEIGER

@<TRIPOS>ATOM
      1 C           6.3720    0.0150    1.1860 C.3     1  UNL1        0.0125
      2 C           4.9830    0.4540    0.8180 C.2     1  UNL1        0.2141
      3 O           4.6520    1.5930    1.1920 O.2     1  UNL1       -0.2758
      4 N           4.1190   -0.3870    0.0940 N.am    1  UNL1       -0.2857
      5 C           2.8020   -0.0850   -0.3070 C.ar    1  UNL1        0.0336
      6 C           2.0500   -1.0840   -0.9470 C.ar    1  UNL1       -0.0370
      7 C           0.7740   -0.8760   -1.3700 C.ar    1  UNL1       -0.0176
      8 C           0.1670    0.3460   -1.1800 C.ar    1  UNL1        0.1286
      9 O          -1.1350    0.5300   -1.6210 O.3     1  UNL1       -0.4557
     10 C          -2.2480    0.2770   -0.8430 C.ar    1  UNL1        0.1366
     11 C          -2.8230   -0.9850   -0.8640 C.ar    1  UNL1        0.0018
     12 C          -3.9340   -1.2840   -0.1040 C.ar    1  UNL1        0.0345
     13 N          -4.5150   -2.5820   -0.1330 N.pl3   1  UNL1       -0.3577
     14 C          -4.4790   -0.2960    0.6920 C.ar    1  UNL1        0.0364
     15 C          -3.9380    0.9700    0.7410 C.ar    1  UNL1        0.2784
     16 N          -4.5000    1.9960    1.5650 N.pl3   1  UNL1        0.0798
     17 O          -5.5040    1.7260    2.2510 O.2     1  UNL1        0.0414
     18 O          -3.9790    3.2510    1.6250 O.co2   1  UNL1       -0.5760
     19 C          -2.8220    1.2440   -0.0320 C.ar    1  UNL1        0.0579
     20 C           0.8660    1.3500   -0.5600 C.ar    1  UNL1       -0.0176
     21 C           2.1820    1.1030   -0.1350 C.ar    1  UNL1       -0.0370
     22 H           6.8602    0.7958    1.7309 H       1  UNL1        0.0323
     23 H           6.9260   -0.1990    0.2959 H       1  UNL1        0.0323
     24 H           6.3190   -0.8644    1.7932 H       1  UNL1        0.0323
     25 H           4.4680   -1.2727   -0.1571 H       1  UNL1        0.1548
     26 H           2.4810   -2.0088   -1.1018 H       1  UNL1        0.0637
     27 H           0.2575   -1.6383   -1.8361 H       1  UNL1        0.0655
     28 H          -2.4097   -1.7173   -1.4623 H       1  UNL1        0.0673
     29 H          -4.1237   -3.2839   -0.7017 H       1  UNL1        0.1423
     30 H          -5.3085   -2.7785    0.4157 H       1  UNL1        0.1423
     31 H          -5.3110   -0.5110    1.2635 H       1  UNL1        0.0704
     32 H          -2.4084    2.1891   -0.0037 H       1  UNL1        0.0723
     33 H           0.4315    2.2736   -0.4079 H       1  UNL1        0.0655
     34 H           2.6995    1.8649    0.3305 H       1  UNL1        0.0637
@<TRIPOS>UNITY_ATOM_ATTR
16 1
charge 1
18 1
charge -1
@<TRIPOS>BOND
     1     1     2    1
     2     2     3    2
     3     2     4   am
     4     4     5    1
     5     5     6   ar
     6     5    21   ar
     7     6     7   ar
     8     7     8   ar
     9     8     9    1
    10     8    20   ar
    11     9    10    1
    12    10    11   ar
    13    10    19   ar
    14    11    12   ar
    15    12    13    1
    16    12    14   ar
    17    14    15   ar
    18    15    16    1
    19    15    19   ar
    20    16    17    2
    21    16    18    1
    22    20    21   ar
    23     1    22    1
    24     1    23    1
    25     1    24    1
    26     4    25    1
    27     6    26    1
    28     7    27    1
    29    11    28    1
    30    13    29    1
    31    13    30    1
    32    14    31    1
    33    19    32    1
    34    20    33    1
    35    21    34    1
@<TRIPOS>MOLECULE
../data/bude_mols_rdkit_confs2/molecule_42.pdb
 34 35 0 0 0
SMALL
GASTEIGER

@<TRIPOS>ATOM
      1 C           6.5480   -0.0310    0.5370 C.3     1  UNL1        0.0125
      2 C           5.1460    0.5150    0.5830 C.2     1  UNL1        0.2141
      3 O           4.9270    1.4890    1.3220 O.2     1  UNL1       -0.2758
      4 N           4.1190   -0.0560   -0.1700 N.am    1  UNL1       -0.2857
      5 C           2.7660    0.3810   -0.1890 C.ar    1  UNL1        0.0336
      6 C           2.2050    1.2940    0.6630 C.ar    1  UNL1       -0.0370
      7 C           0.8600    1.6860    0.5740 C.ar    1  UNL1       -0.0176
      8 C           0.0480    1.1480   -0.3990 C.ar    1  UNL1        0.1286
      9 O          -1.2660    1.4920   -0.5210 O.3     1  UNL1       -0.4557
     10 C          -2.3280    0.6340   -0.2690 C.ar    1  UNL1        0.1366
     11 C          -3.6400    1.0850   -0.3170 C.ar    1  UNL1        0.0018
     12 C          -4.7220    0.2360   -0.0730 C.ar    1  UNL1        0.0345
     13 N          -6.0630    0.7000   -0.1240 N.pl3   1  UNL1       -0.3577
     14 C          -4.5050   -1.0880    0.2310 C.ar    1  UNL1        0.0364
     15 C          -3.1920   -1.5490    0.2830 C.ar    1  UNL1        0.2784
     16 N          -2.9460   -2.9130    0.5930 N.pl3   1  UNL1        0.0798
     17 O          -1.7660   -3.3280    0.6470 O.2     1  UNL1        0.0414
     18 O          -4.0090   -3.7750    0.8370 O.co2   1  UNL1       -0.5760
     19 C          -2.1290   -0.7020    0.0380 C.ar    1  UNL1        0.0579
     20 C           0.6120    0.2320   -1.2580 C.ar    1  UNL1       -0.0176
     21 C           1.9240   -0.1530   -1.1750 C.ar    1  UNL1       -0.0370
     22 H           7.1768    0.5461    1.1823 H       1  UNL1        0.0323
     23 H           6.9193    0.0236   -0.4650 H       1  UNL1        0.0323
     24 H           6.5444   -1.0508    0.8610 H       1  UNL1        0.0323
     25 H           4.3511   -0.8271   -0.7363 H       1  UNL1        0.1548
     26 H           2.7946    1.7108    1.4003 H       1  UNL1        0.0637
     27 H           0.4796    2.3780    1.2384 H       1  UNL1        0.0655
     28 H          -3.8212    2.0763   -0.5394 H       1  UNL1        0.0673
     29 H          -6.2500    1.6424   -0.3389 H       1  UNL1        0.1423
     30 H          -6.8058    0.0793    0.0556 H       1  UNL1        0.1423
     31 H          -5.2962   -1.7243    0.4161 H       1  UNL1        0.0704
     32 H          -1.1667   -1.0720    0.0846 H       1  UNL1        0.0723
     33 H           0.0213   -0.1823   -1.9959 H       1  UNL1        0.0655
     34 H           2.2968   -0.8435   -1.8453 H       1  UNL1        0.0637
@<TRIPOS>UNITY_ATOM_ATTR
16 1
charge 1
18 1
charge -1
@<TRIPOS>BOND
     1     1     2    1
     2     2     3    2
     3     2     4   am
     4     4     5    1
     5     5     6   ar
     6     5    21   ar
     7     6     7   ar
     8     7     8   ar
     9     8     9    1
    10     8    20   ar
    11     9    10    1
    12    10    11   ar
    13    10    19   ar
    14    11    12   ar
    15    12    13    1
    16    12    14   ar
    17    14    15   ar
    18    15    16    1
    19    15    19   ar
    20    16    17    2
    21    16    18    1
    22    20    21   ar
    23     1    22    1
    24     1    23    1
    25     1    24    1
    26     4    25    1
    27     6    26    1
    28     7    27    1
    29    11    28    1
    30    13    29    1
    31    13    30    1
    32    14    31    1
    33    19    32    1
    34    20    33    1
    35    21    34    1
@<TRIPOS>MOLECULE
../data/bude_mols_rdkit_confs2/molecule_42.pdb
 34 35 0 0 0
SMALL
GASTEIGER

@<TRIPOS>ATOM
      1 C          -6.2690   -1.4670    0.3580 C.3     1  UNL1        0.0125
      2 C          -4.7900   -1.2280    0.2090 C.2     1  UNL1        0.2141
      3 O          -4.0540   -2.2180    0.1080 O.2     1  UNL1       -0.2758
      4 N          -4.2570    0.0710    0.1840 N.am    1  UNL1       -0.2857
      5 C          -2.8950    0.4100    0.0540 C.ar    1  UNL1        0.0336
      6 C          -1.8450   -0.4750    0.1040 C.ar    1  UNL1       -0.0370
      7 C          -0.5110   -0.0490   -0.0500 C.ar    1  UNL1       -0.0176
      8 C          -0.2210    1.2640   -0.2540 C.ar    1  UNL1        0.1286
      9 O           1.0650    1.7670   -0.4150 O.3     1  UNL1       -0.4557
     10 C           2.2000    1.0200   -0.3900 C.ar    1  UNL1        0.1366
     11 C           2.7150    0.4650   -1.5370 C.ar    1  UNL1        0.0018
     12 C           3.8630   -0.2970   -1.5530 C.ar    1  UNL1        0.0345
     13 N           4.3880   -0.8670   -2.7470 N.pl3   1  UNL1       -0.3577
     14 C           4.5120   -0.5030   -0.3530 C.ar    1  UNL1        0.0364
     15 C           4.0330    0.0330    0.8190 C.ar    1  UNL1        0.2784
     16 N           4.6980   -0.1760    2.0560 N.pl3   1  UNL1        0.0798
     17 O           4.2460    0.3190    3.1060 O.2     1  UNL1        0.0414
     18 O           5.8480   -0.9230    2.1340 O.co2   1  UNL1       -0.5760
     19 C           2.8720    0.7960    0.7900 C.ar    1  UNL1        0.0579
     20 C          -1.2720    2.1460   -0.3030 C.ar    1  UNL1       -0.0176
     21 C          -2.5820    1.7680   -0.1580 C.ar    1  UNL1       -0.0370
     22 H          -6.4625   -2.5194    0.3533 H       1  UNL1        0.0323
     23 H          -6.7886   -1.0052   -0.4554 H       1  UNL1        0.0323
     24 H          -6.6070   -1.0463    1.2820 H       1  UNL1        0.0323
     25 H          -4.8955    0.8160    0.2650 H       1  UNL1        0.1548
     26 H          -2.0385   -1.4769    0.2582 H       1  UNL1        0.0637
     27 H           0.2540   -0.7404   -0.0076 H       1  UNL1        0.0655
     28 H           2.2190    0.6264   -2.4275 H       1  UNL1        0.0673
     29 H           3.9278   -0.7223   -3.6052 H       1  UNL1        0.1423
     30 H           5.2113   -1.4059   -2.7146 H       1  UNL1        0.1423
     31 H           5.3738   -1.0705   -0.3348 H       1  UNL1        0.0704
     32 H           2.5081    1.2009    1.6667 H       1  UNL1        0.0723
     33 H          -1.0653    3.1453   -0.4570 H       1  UNL1        0.0655
     34 H          -3.3341    2.4732   -0.2038 H       1  UNL1        0.0637
@<TRIPOS>UNITY_ATOM_ATTR
16 1
charge 1
18 1
charge -1
@<TRIPOS>BOND
     1     1     2    1
     2     2     3    2
     3     2     4   am
     4     4     5    1
     5     5     6   ar
     6     5    21   ar
     7     6     7   ar
     8     7     8   ar
     9     8     9    1
    10     8    20   ar
    11     9    10    1
    12    10    11   ar
    13    10    19   ar
    14    11    12   ar
    15    12    13    1
    16    12    14   ar
    17    14    15   ar
    18    15    16    1
    19    15    19   ar
    20    16    17    2
    21    16    18    1
    22    20    21   ar
    23     1    22    1
    24     1    23    1
    25     1    24    1
    26     4    25    1
    27     6    26    1
    28     7    27    1
    29    11    28    1
    30    13    29    1
    31    13    30    1
    32    14    31    1
    33    19    32    1
    34    20    33    1
    35    21    34    1
@<TRIPOS>MOLECULE
../data/bude_mols_rdkit_confs2/molecule_42.pdb
 34 35 0 0 0
SMALL
GASTEIGER

@<TRIPOS>ATOM
      1 C           6.2430    0.8410   -0.9330 C.3     1  UNL1        0.0125
      2 C           4.8600    0.9980   -0.3230 C.2     1  UNL1        0.2141
      3 O           4.5440    2.1300    0.1090 O.2     1  UNL1       -0.2758
      4 N           3.9830   -0.0900   -0.2550 N.am    1  UNL1       -0.2857
      5 C           2.6980   -0.0550    0.2750 C.ar    1  UNL1        0.0336
      6 C           1.9970    1.0640    0.6190 C.ar    1  UNL1       -0.0370
      7 C           0.7030    1.0240    1.1670 C.ar    1  UNL1       -0.0176
      8 C           0.0920   -0.1850    1.3760 C.ar    1  UNL1        0.1286
      9 O          -1.2020   -0.2700    1.9220 O.3     1  UNL1       -0.4557
     10 C          -2.2410   -0.2590    1.0060 C.ar    1  UNL1        0.1366
     11 C          -2.6980   -1.4440    0.4890 C.ar    1  UNL1        0.0018
     12 C          -3.7360   -1.4820   -0.4300 C.ar    1  UNL1        0.0345
     13 N          -4.2050   -2.7140   -0.9610 N.pl3   1  UNL1       -0.3577
     14 C          -4.2780   -0.2730   -0.7930 C.ar    1  UNL1        0.0364
     15 C          -3.8270    0.9250   -0.2810 C.ar    1  UNL1        0.2784
     16 N          -4.4280    2.1390   -0.6950 N.pl3   1  UNL1        0.0798
     17 O          -4.0640    3.2520   -0.2680 O.2     1  UNL1        0.0414
     18 O          -5.4610    2.1250   -1.6080 O.co2   1  UNL1       -0.5760
     19 C          -2.7910    0.9420    0.6350 C.ar    1  UNL1        0.0579
     20 C           0.7900   -1.3180    1.0330 C.ar    1  UNL1       -0.0176
     21 C           2.0520   -1.2910    0.4980 C.ar    1  UNL1       -0.0370
     22 H           6.7588    1.7777   -0.8933 H       1  UNL1        0.0323
     23 H           6.1500    0.5280   -1.9519 H       1  UNL1        0.0323
     24 H           6.7941    0.1068   -0.3832 H       1  UNL1        0.0323
     25 H           4.3017   -0.9506   -0.6115 H       1  UNL1        0.1548
     26 H           2.4384    1.9848    0.4696 H       1  UNL1        0.0637
     27 H           0.2156    1.9004    1.4107 H       1  UNL1        0.0655
     28 H          -2.2594   -2.3281    0.7908 H       1  UNL1        0.0673
     29 H          -3.7919   -3.5614   -0.6773 H       1  UNL1        0.1423
     30 H          -4.9430   -2.7201   -1.6126 H       1  UNL1        0.1423
     31 H          -5.0524   -0.2611   -1.4751 H       1  UNL1        0.0704
     32 H          -2.4424    1.8306    1.0274 H       1  UNL1        0.0723
     33 H           0.3418   -2.2350    1.1858 H       1  UNL1        0.0655
     34 H           2.5299   -2.1737    0.2583 H       1  UNL1        0.0637
@<TRIPOS>UNITY_ATOM_ATTR
16 1
charge 1
18 1
charge -1
@<TRIPOS>BOND
     1     1     2    1
     2     2     3    2
     3     2     4   am
     4     4     5    1
     5     5     6   ar
     6     5    21   ar
     7     6     7   ar
     8     7     8   ar
     9     8     9    1
    10     8    20   ar
    11     9    10    1
    12    10    11   ar
    13    10    19   ar
    14    11    12   ar
    15    12    13    1
    16    12    14   ar
    17    14    15   ar
    18    15    16    1
    19    15    19   ar
    20    16    17    2
    21    16    18    1
    22    20    21   ar
    23     1    22    1
    24     1    23    1
    25     1    24    1
    26     4    25    1
    27     6    26    1
    28     7    27    1
    29    11    28    1
    30    13    29    1
    31    13    30    1
    32    14    31    1
    33    19    32    1
    34    20    33    1
    35    21    34    1
@<TRIPOS>MOLECULE
../data/bude_mols_rdkit_confs2/molecule_42.pdb
 34 35 0 0 0
SMALL
GASTEIGER

@<TRIPOS>ATOM
      1 C           6.9030   -0.6460    0.0900 C.3     1  UNL1        0.0125
      2 C           5.5220   -0.0290    0.0830 C.2     1  UNL1        0.2141
      3 O           5.4070    1.2010    0.1470 O.2     1  UNL1       -0.2758
      4 N           4.3770   -0.8480    0.0030 N.am    1  UNL1       -0.2857
      5 C           3.0300   -0.4400   -0.0200 C.ar    1  UNL1        0.0336
      6 C           2.0320   -1.3960    0.1270 C.ar    1  UNL1       -0.0370
      7 C           0.7050   -1.0210    0.0950 C.ar    1  UNL1       -0.0176
      8 C           0.2960    0.2770   -0.0760 C.ar    1  UNL1        0.1286
      9 O          -0.9430    0.6980   -0.1140 O.3     1  UNL1       -0.4557
     10 C          -2.2240    0.4900   -0.0440 C.ar    1  UNL1        0.1366
     11 C          -3.0820    1.5950   -0.2510 C.ar    1  UNL1        0.0018
     12 C          -4.4440    1.4910   -0.2000 C.ar    1  UNL1        0.0345
     13 N          -5.3020    2.6050   -0.4100 N.pl3   1  UNL1       -0.3577
     14 C          -5.0310    0.2740    0.0620 C.ar    1  UNL1        0.0364
     15 C          -4.2450   -0.8310    0.2710 C.ar    1  UNL1        0.2784
     16 N          -4.8160   -2.0910    0.5410 N.pl3   1  UNL1        0.0798
     17 O          -6.0620   -2.1970    0.5900 O.2     1  UNL1        0.0414
     18 O          -4.0020   -3.1790    0.7460 O.co2   1  UNL1       -0.5760
     19 C          -2.8440   -0.7020    0.2140 C.ar    1  UNL1        0.0579
     20 C           1.3100    1.2420   -0.2240 C.ar    1  UNL1       -0.0176
     21 C           2.6430    0.8430   -0.1900 C.ar    1  UNL1       -0.0370
     22 H           7.6391    0.1279    0.1552 H       1  UNL1        0.0323
     23 H           7.0496   -1.2025   -0.8120 H       1  UNL1        0.0323
     24 H           6.9973   -1.2998    0.9318 H       1  UNL1        0.0323
     25 H           4.5384   -1.8181   -0.0420 H       1  UNL1        0.1548
     26 H           2.2841   -2.3878    0.2603 H       1  UNL1        0.0637
     27 H          -0.0148   -1.7523    0.2050 H       1  UNL1        0.0655
     28 H          -2.6629    2.5171   -0.4485 H       1  UNL1        0.0673
     29 H          -4.9195    3.4920   -0.6000 H       1  UNL1        0.1423
     30 H          -6.2787    2.4894   -0.3654 H       1  UNL1        0.1423
     31 H          -6.0591    0.1929    0.1011 H       1  UNL1        0.0704
     32 H          -2.2621   -1.5393    0.3731 H       1  UNL1        0.0723
     33 H           1.0673    2.2363   -0.3565 H       1  UNL1        0.0655
     34 H           3.3730    1.5641   -0.3003 H       1  UNL1        0.0637
@<TRIPOS>UNITY_ATOM_ATTR
16 1
charge 1
18 1
charge -1
@<TRIPOS>BOND
     1     1     2    1
     2     2     3    2
     3     2     4   am
     4     4     5    1
     5     5     6   ar
     6     5    21   ar
     7     6     7   ar
     8     7     8   ar
     9     8     9    1
    10     8    20   ar
    11     9    10    1
    12    10    11   ar
    13    10    19   ar
    14    11    12   ar
    15    12    13    1
    16    12    14   ar
    17    14    15   ar
    18    15    16    1
    19    15    19   ar
    20    16    17    2
    21    16    18    1
    22    20    21   ar
    23     1    22    1
    24     1    23    1
    25     1    24    1
    26     4    25    1
    27     6    26    1
    28     7    27    1
    29    11    28    1
    30    13    29    1
    31    13    30    1
    32    14    31    1
    33    19    32    1
    34    20    33    1
    35    21    34    1
@<TRIPOS>MOLECULE
../data/bude_mols_rdkit_confs2/molecule_42.pdb
 34 35 0 0 0
SMALL
GASTEIGER

@<TRIPOS>ATOM
      1 C           6.2870    0.7430    0.9850 C.3     1  UNL1        0.0125
      2 C           4.9030    0.9090    0.4000 C.2     1  UNL1        0.2141
      3 O           4.5270    2.0450    0.0620 O.2     1  UNL1       -0.2758
      4 N           4.0560   -0.1980    0.2410 N.am    1  UNL1       -0.2857
      5 C           2.7540   -0.1860   -0.2850 C.ar    1  UNL1        0.0336
      6 C           2.0620    0.8990   -0.7410 C.ar    1  UNL1       -0.0370
      7 C           0.7740    0.8240   -1.2470 C.ar    1  UNL1       -0.0176
      8 C           0.1160   -0.3790   -1.3160 C.ar    1  UNL1        0.1286
      9 O          -1.1730   -0.4480   -1.8240 O.3     1  UNL1       -0.4557
     10 C          -2.2390   -0.2970   -0.9380 C.ar    1  UNL1        0.1366
     11 C          -3.5530   -0.3570   -1.3930 C.ar    1  UNL1        0.0018
     12 C          -4.6070   -0.2120   -0.5420 C.ar    1  UNL1        0.0345
     13 N          -5.9640   -0.2740   -1.0090 N.pl3   1  UNL1       -0.3577
     14 C          -4.3750    0.0000    0.8030 C.ar    1  UNL1        0.0364
     15 C          -3.0690    0.0670    1.2980 C.ar    1  UNL1        0.2784
     16 N          -2.8360    0.2850    2.6830 N.pl3   1  UNL1        0.0798
     17 O          -1.6600    0.3380    3.0800 O.2     1  UNL1        0.0414
     18 O          -3.9140    0.4300    3.5280 O.co2   1  UNL1       -0.5760
     19 C          -2.0250   -0.0840    0.4110 C.ar    1  UNL1        0.0579
     20 C           0.7790   -1.4950   -0.8670 C.ar    1  UNL1       -0.0176
     21 C           2.0590   -1.4000   -0.3670 C.ar    1  UNL1       -0.0370
     22 H           6.7740    1.6949    1.0245 H       1  UNL1        0.0323
     23 H           6.8561    0.0764    0.3712 H       1  UNL1        0.0323
     24 H           6.2105    0.3402    1.9733 H       1  UNL1        0.0323
     25 H           4.4100   -1.0710    0.5269 H       1  UNL1        0.1548
     26 H           2.5216    1.8224   -0.7071 H       1  UNL1        0.0637
     27 H           0.3042    1.6821   -1.5756 H       1  UNL1        0.0655
     28 H          -3.7328   -0.5148   -2.3969 H       1  UNL1        0.0673
     29 H          -6.1495   -0.4244   -1.9641 H       1  UNL1        0.1423
     30 H          -6.7085   -0.1661   -0.3740 H       1  UNL1        0.1423
     31 H          -5.1727    0.1099    1.4484 H       1  UNL1        0.0704
     32 H          -1.0563   -0.0367    0.7638 H       1  UNL1        0.0723
     33 H           0.3129   -2.4150   -0.9047 H       1  UNL1        0.0655
     34 H           2.5261   -2.2597   -0.0387 H       1  UNL1        0.0637
@<TRIPOS>UNITY_ATOM_ATTR
16 1
charge 1
18 1
charge -1
@<TRIPOS>BOND
     1     1     2    1
     2     2     3    2
     3     2     4   am
     4     4     5    1
     5     5     6   ar
     6     5    21   ar
     7     6     7   ar
     8     7     8   ar
     9     8     9    1
    10     8    20   ar
    11     9    10    1
    12    10    11   ar
    13    10    19   ar
    14    11    12   ar
    15    12    13    1
    16    12    14   ar
    17    14    15   ar
    18    15    16    1
    19    15    19   ar
    20    16    17    2
    21    16    18    1
    22    20    21   ar
    23     1    22    1
    24     1    23    1
    25     1    24    1
    26     4    25    1
    27     6    26    1
    28     7    27    1
    29    11    28    1
    30    13    29    1
    31    13    30    1
    32    14    31    1
    33    19    32    1
    34    20    33    1
    35    21    34    1
