@<TRIPOS>MOLECULE
../data/bude_mols_rdkit_confs2/molecule_64.pdb
 40 43 0 0 0
SMALL
GASTEIGER

@<TRIPOS>ATOM
      1  O1         4.0430   -2.6110    0.1780 O.2     1  UNL1       -0.2666
      2  C1         3.6480   -1.4110    0.0210 C.2     1  UNL1        0.2652
      3  C2         2.2410   -1.2500   -0.2580 C.ar    1  UNL1        0.0752
      4  C3         1.4280   -0.2840    0.2940 C.ar    1  UNL1       -0.0431
      5  C4         0.0780   -0.1500    0.0040 C.ar    1  UNL1       -0.0406
      6  C5        -0.6310    0.9760    0.6650 C.3     1  UNL1        0.0171
      7  C6        -1.9390    1.2650    0.0720 C.ar    1  UNL1        0.0736
      8  N1        -2.1250    2.2250   -0.8460 N.ar    1  UNL1       -0.1750
      9  N2        -3.2720    2.4840   -1.4120 N.ar    1  UNL1       -0.2425
     10  C7        -4.3780    1.7800   -1.0990 C.ar    1  UNL1        0.2725
     11  O2        -5.4890    2.0470   -1.6630 O.2     1  UNL1       -0.2658
     12  C8        -4.2630    0.7770   -0.1620 C.ar    1  UNL1        0.0496
     13  C9        -5.3640    0.0320    0.2090 C.ar    1  UNL1       -0.0487
     14  C10       -5.3010   -0.9740    1.1540 C.ar    1  UNL1       -0.0610
     15  C11       -4.0810   -1.2340    1.7420 C.ar    1  UNL1       -0.0611
     16  C12       -2.9640   -0.5050    1.3900 C.ar    1  UNL1       -0.0521
     17  C13       -3.0300    0.5030    0.4430 C.ar    1  UNL1        0.0106
     18  C14       -0.5210   -1.0100   -0.8800 C.ar    1  UNL1       -0.0555
     19  C15        0.2600   -1.9830   -1.4470 C.ar    1  UNL1       -0.0254
     20  C16        1.5920   -2.1140   -1.1610 C.ar    1  UNL1        0.1357
     21  F1         2.3530   -3.0810   -1.7370 F       1  UNL1       -0.2047
     22  N3         4.5760   -0.3670    0.1300 N.ar    1  UNL1       -0.2903
     23  C17        4.4280    0.9490   -0.0100 C.ar    1  UNL1        0.0127
     24  C18        5.6130    1.6020    0.2110 C.ar    1  UNL1       -0.0437
     25  C19        6.5510    0.6480    0.5020 C.ar    1  UNL1       -0.0437
     26  C20        5.8970   -0.5600    0.4480 C.ar    1  UNL1        0.0127
     27 H           1.8486    0.3795    0.9632 H       1  UNL1        0.0629
     28 H          -0.0222    1.8525    0.5883 H       1  UNL1        0.0377
     29 H          -0.8003    0.6905    1.6822 H       1  UNL1        0.0377
     30 H          -3.3305    3.2058   -2.0789 H       1  UNL1        0.1921
     31 H          -6.2719    0.2347   -0.2379 H       1  UNL1        0.0625
     32 H          -6.1415   -1.5145    1.4120 H       1  UNL1        0.0618
     33 H          -4.0030   -1.9798    2.4510 H       1  UNL1        0.0618
     34 H          -2.0604   -0.7153    1.8419 H       1  UNL1        0.0624
     35 H          -1.5236   -0.9276   -1.1101 H       1  UNL1        0.0621
     36 H          -0.1722   -2.6411   -2.1142 H       1  UNL1        0.0646
     37 H           3.5398    1.4151   -0.2525 H       1  UNL1        0.0814
     38 H           5.7688    2.6212    0.1664 H       1  UNL1        0.0633
     39 H           7.5479    0.8043    0.7183 H       1  UNL1        0.0633
     40 H           6.3354   -1.4780    0.6213 H       1  UNL1        0.0814
@<TRIPOS>BOND
     1     1     2    2
     2     2     3    1
     3     2    22   am
     4     3     4   ar
     5     3    20   ar
     6     4     5   ar
     7     5     6    1
     8     5    18   ar
     9     6     7    1
    10     7     8   ar
    11     7    17   ar
    12     8     9   ar
    13     9    10   ar
    14    10    11    2
    15    10    12   ar
    16    12    13   ar
    17    12    17   ar
    18    13    14   ar
    19    14    15   ar
    20    15    16   ar
    21    16    17   ar
    22    18    19   ar
    23    19    20   ar
    24    20    21    1
    25    22    23   ar
    26    22    26   ar
    27    23    24   ar
    28    24    25   ar
    29    25    26   ar
    30     4    27    1
    31     6    28    1
    32     6    29    1
    33     9    30    1
    34    13    31    1
    35    14    32    1
    36    15    33    1
    37    16    34    1
    38    18    35    1
    39    19    36    1
    40    23    37    1
    41    24    38    1
    42    25    39    1
    43    26    40    1
@<TRIPOS>MOLECULE
../data/bude_mols_rdkit_confs2/molecule_64.pdb
 40 43 0 0 0
SMALL
GASTEIGER

@<TRIPOS>ATOM
      1  O1        -3.2940    0.2040   -2.4890 O.2     1  UNL1       -0.2666
      2  C1        -3.0880    0.1770   -1.2160 C.2     1  UNL1        0.2652
      3  C2        -1.9930    0.9860   -0.7150 C.ar    1  UNL1        0.0752
      4  C3        -1.1000    0.5270    0.2250 C.ar    1  UNL1       -0.0431
      5  C4        -0.0790    1.3270    0.7000 C.ar    1  UNL1       -0.0406
      6  C5         0.9030    0.8510    1.7030 C.3     1  UNL1        0.0171
      7  C6         2.2790    0.7260    1.2390 C.ar    1  UNL1        0.0736
      8  N1         3.1880    1.7110    1.4780 N.ar    1  UNL1       -0.1750
      9  N2         4.4200    1.7170    1.0850 N.ar    1  UNL1       -0.2425
     10  C7         4.8990    0.6920    0.3790 C.ar    1  UNL1        0.2725
     11  O2         6.0910    0.6390   -0.0330 O.2     1  UNL1       -0.2658
     12  C8         4.0550   -0.3600    0.0840 C.ar    1  UNL1        0.0496
     13  C9         4.5090   -1.4560   -0.6400 C.ar    1  UNL1       -0.0487
     14  C10        3.6880   -2.5190   -0.9360 C.ar    1  UNL1       -0.0610
     15  C11        2.3730   -2.5040   -0.5030 C.ar    1  UNL1       -0.0611
     16  C12        1.9070   -1.4260    0.2150 C.ar    1  UNL1       -0.0521
     17  C13        2.7190   -0.3480    0.5200 C.ar    1  UNL1        0.0106
     18  C14       -0.0040    2.6140    0.1790 C.ar    1  UNL1       -0.0555
     19  C15       -0.8750    3.0970   -0.7560 C.ar    1  UNL1       -0.0254
     20  C16       -1.8810    2.2680   -1.2050 C.ar    1  UNL1        0.1357
     21  F1        -2.7520    2.7620   -2.1450 F       1  UNL1       -0.2047
     22  N3        -3.9410   -0.6290   -0.4230 N.ar    1  UNL1       -0.2903
     23  C17       -4.9450   -1.3910   -0.8680 C.ar    1  UNL1        0.0127
     24  C18       -5.5860   -2.0230    0.1480 C.ar    1  UNL1       -0.0437
     25  C19       -4.9410   -1.6300    1.3030 C.ar    1  UNL1       -0.0437
     26  C20       -3.9220   -0.7600    0.9010 C.ar    1  UNL1        0.0127
     27 H          -1.1948   -0.4362    0.5833 H       1  UNL1        0.0629
     28 H           0.5833   -0.1118    2.0432 H       1  UNL1        0.0377
     29 H           0.9225    1.6003    2.4666 H       1  UNL1        0.0377
     30 H           5.0040    2.4779    1.3069 H       1  UNL1        0.1921
     31 H           5.4886   -1.4727   -0.9643 H       1  UNL1        0.0625
     32 H           4.0490   -3.3208   -1.4762 H       1  UNL1        0.0618
     33 H           1.7465   -3.2956   -0.7171 H       1  UNL1        0.0618
     34 H           0.9257   -1.4217    0.5344 H       1  UNL1        0.0624
     35 H           0.7477    3.2358    0.5157 H       1  UNL1        0.0621
     36 H          -0.7822    4.0591   -1.1175 H       1  UNL1        0.0646
     37 H          -5.2016   -1.4871   -1.8630 H       1  UNL1        0.0814
     38 H          -6.3902   -2.6653    0.0723 H       1  UNL1        0.0633
     39 H          -5.1651   -1.9194    2.2679 H       1  UNL1        0.0633
     40 H          -3.2565   -0.2909    1.5351 H       1  UNL1        0.0814
@<TRIPOS>BOND
     1     1     2    2
     2     2     3    1
     3     2    22   am
     4     3     4   ar
     5     3    20   ar
     6     4     5   ar
     7     5     6    1
     8     5    18   ar
     9     6     7    1
    10     7     8   ar
    11     7    17   ar
    12     8     9   ar
    13     9    10   ar
    14    10    11    2
    15    10    12   ar
    16    12    13   ar
    17    12    17   ar
    18    13    14   ar
    19    14    15   ar
    20    15    16   ar
    21    16    17   ar
    22    18    19   ar
    23    19    20   ar
    24    20    21    1
    25    22    23   ar
    26    22    26   ar
    27    23    24   ar
    28    24    25   ar
    29    25    26   ar
    30     4    27    1
    31     6    28    1
    32     6    29    1
    33     9    30    1
    34    13    31    1
    35    14    32    1
    36    15    33    1
    37    16    34    1
    38    18    35    1
    39    19    36    1
    40    23    37    1
    41    24    38    1
    42    25    39    1
    43    26    40    1
@<TRIPOS>MOLECULE
../data/bude_mols_rdkit_confs2/molecule_64.pdb
 40 43 0 0 0
SMALL
GASTEIGER

@<TRIPOS>ATOM
      1  O1         3.2530   -2.7000    0.8550 O.2     1  UNL1       -0.2666
      2  C1         3.0800   -1.5090    0.4610 C.2     1  UNL1        0.2652
      3  C2         2.0740   -0.6610    1.0780 C.ar    1  UNL1        0.0752
      4  C3         1.1900    0.0890    0.3700 C.ar    1  UNL1       -0.0431
      5  C4         0.2230    0.9310    0.9540 C.ar    1  UNL1       -0.0406
      6  C5        -0.6700    1.7210    0.0380 C.3     1  UNL1        0.0171
      7  C6        -1.6650    0.9550   -0.6580 C.ar    1  UNL1        0.0736
      8  N1        -1.3530    0.5140   -1.9110 N.ar    1  UNL1       -0.1750
      9  N2        -2.1760   -0.2410   -2.6080 N.ar    1  UNL1       -0.2425
     10  C7        -3.3680   -0.6180   -2.1220 C.ar    1  UNL1        0.2725
     11  O2        -4.1560   -1.3390   -2.7830 O.2     1  UNL1       -0.2658
     12  C8        -3.7670   -0.2180   -0.8640 C.ar    1  UNL1        0.0496
     13  C9        -4.9910   -0.5780   -0.3450 C.ar    1  UNL1       -0.0487
     14  C10       -5.3260   -0.1230    0.9190 C.ar    1  UNL1       -0.0610
     15  C11       -4.4480    0.6680    1.6240 C.ar    1  UNL1       -0.0611
     16  C12       -3.2270    1.0340    1.1200 C.ar    1  UNL1       -0.0521
     17  C13       -2.8710    0.5860   -0.1440 C.ar    1  UNL1        0.0106
     18  C14        0.1570    1.0090    2.2950 C.ar    1  UNL1       -0.0555
     19  C15        1.0520    0.2500    3.0520 C.ar    1  UNL1       -0.0254
     20  C16        1.9940   -0.5710    2.4760 C.ar    1  UNL1        0.1357
     21  F1         2.8630   -1.3080    3.1890 F       1  UNL1       -0.2047
     22  N3         3.8910   -1.0240   -0.5920 N.ar    1  UNL1       -0.2903
     23  C17        4.8440   -1.7700   -1.2340 C.ar    1  UNL1        0.0127
     24  C18        5.4450   -0.9750   -2.1770 C.ar    1  UNL1       -0.0437
     25  C19        4.8580    0.2670   -2.1150 C.ar    1  UNL1       -0.0437
     26  C20        3.8970    0.1990   -1.1180 C.ar    1  UNL1        0.0127
     27 H           1.2291    0.0389   -0.6600 H       1  UNL1        0.0629
     28 H          -0.0528    2.2022   -0.6917 H       1  UNL1        0.0377
     29 H          -1.2058    2.4043    0.6632 H       1  UNL1        0.0377
     30 H          -1.9099   -0.5363   -3.5087 H       1  UNL1        0.1921
     31 H          -5.6411   -1.1711   -0.8840 H       1  UNL1        0.0625
     32 H          -6.2362   -0.3776    1.3334 H       1  UNL1        0.0618
     33 H          -4.7180    0.9969    2.5642 H       1  UNL1        0.0618
     34 H          -2.5869    1.6294    1.6684 H       1  UNL1        0.0624
     35 H          -0.5396    1.6163    2.7544 H       1  UNL1        0.0621
     36 H           1.0051    0.3070    4.0814 H       1  UNL1        0.0646
     37 H           5.0705   -2.7583   -1.0417 H       1  UNL1        0.0814
     38 H           6.2023   -1.2585   -2.8182 H       1  UNL1        0.0633
     39 H           5.0876    1.0882   -2.6963 H       1  UNL1        0.0633
     40 H           3.2820    0.9756   -0.8286 H       1  UNL1        0.0814
@<TRIPOS>BOND
     1     1     2    2
     2     2     3    1
     3     2    22   am
     4     3     4   ar
     5     3    20   ar
     6     4     5   ar
     7     5     6    1
     8     5    18   ar
     9     6     7    1
    10     7     8   ar
    11     7    17   ar
    12     8     9   ar
    13     9    10   ar
    14    10    11    2
    15    10    12   ar
    16    12    13   ar
    17    12    17   ar
    18    13    14   ar
    19    14    15   ar
    20    15    16   ar
    21    16    17   ar
    22    18    19   ar
    23    19    20   ar
    24    20    21    1
    25    22    23   ar
    26    22    26   ar
    27    23    24   ar
    28    24    25   ar
    29    25    26   ar
    30     4    27    1
    31     6    28    1
    32     6    29    1
    33     9    30    1
    34    13    31    1
    35    14    32    1
    36    15    33    1
    37    16    34    1
    38    18    35    1
    39    19    36    1
    40    23    37    1
    41    24    38    1
    42    25    39    1
    43    26    40    1
@<TRIPOS>MOLECULE
../data/bude_mols_rdkit_confs2/molecule_64.pdb
 40 43 0 0 0
SMALL
GASTEIGER

@<TRIPOS>ATOM
      1  O1         2.7570   -1.8690   -1.3280 O.2     1  UNL1       -0.2666
      2  C1         3.1840   -0.9740   -0.5450 C.2     1  UNL1        0.2652
      3  C2         2.2910   -0.4350    0.4670 C.ar    1  UNL1        0.0752
      4  C3         1.0440    0.0380    0.0630 C.ar    1  UNL1       -0.0431
      5  C4         0.1000    0.5420    0.9040 C.ar    1  UNL1       -0.0406
      6  C5        -1.1970    1.0230    0.3940 C.3     1  UNL1        0.0171
      7  C6        -2.2280   -0.0250    0.3360 C.ar    1  UNL1        0.0736
      8  N1        -2.0070   -1.3050    0.6960 N.ar    1  UNL1       -0.1750
      9  N2        -2.9440   -2.2360    0.6380 N.ar    1  UNL1       -0.2425
     10  C7        -4.1740   -1.9060    0.2030 C.ar    1  UNL1        0.2725
     11  O2        -5.1120   -2.7630    0.1270 O.2     1  UNL1       -0.2658
     12  C8        -4.4780   -0.6310   -0.1800 C.ar    1  UNL1        0.0496
     13  C9        -5.7370   -0.2600   -0.6330 C.ar    1  UNL1       -0.0487
     14  C10       -5.9680    1.0460   -1.0020 C.ar    1  UNL1       -0.0610
     15  C11       -4.9770    2.0030   -0.9340 C.ar    1  UNL1       -0.0611
     16  C12       -3.7240    1.6470   -0.4860 C.ar    1  UNL1       -0.0521
     17  C13       -3.4840    0.3350   -0.1130 C.ar    1  UNL1        0.0106
     18  C14        0.4150    0.5810    2.2680 C.ar    1  UNL1       -0.0555
     19  C15        1.6590    0.1110    2.6890 C.ar    1  UNL1       -0.0254
     20  C16        2.5790   -0.3900    1.7930 C.ar    1  UNL1        0.1357
     21  F1         3.7540   -0.8590    2.2650 F       1  UNL1       -0.2047
     22  N3         4.5190   -0.5150   -0.6690 N.ar    1  UNL1       -0.2903
     23  C17        5.4270   -0.9940   -1.5830 C.ar    1  UNL1        0.0127
     24  C18        6.6120   -0.3150   -1.4600 C.ar    1  UNL1       -0.0437
     25  C19        6.4120    0.5930   -0.4510 C.ar    1  UNL1       -0.0437
     26  C20        5.1060    0.4630    0.0370 C.ar    1  UNL1        0.0127
     27 H           0.8208    0.0037   -0.9440 H       1  UNL1        0.0629
     28 H          -1.0509    1.4098   -0.5929 H       1  UNL1        0.0377
     29 H          -1.5457    1.7713    1.0746 H       1  UNL1        0.0377
     30 H          -2.7440   -3.1608    0.9101 H       1  UNL1        0.1921
     31 H          -6.4944   -0.9585   -0.6927 H       1  UNL1        0.0625
     32 H          -6.9058    1.3157   -1.3378 H       1  UNL1        0.0618
     33 H          -5.1724    2.9763   -1.2160 H       1  UNL1        0.0618
     34 H          -2.9715    2.3510   -0.4289 H       1  UNL1        0.0624
     35 H          -0.2633    0.9520    2.9516 H       1  UNL1        0.0621
     36 H           1.8958    0.1390    3.6931 H       1  UNL1        0.0646
     37 H           5.2443   -1.7510   -2.2602 H       1  UNL1        0.0814
     38 H           7.4732   -0.4571   -2.0106 H       1  UNL1        0.0633
     39 H           7.1140    1.2662   -0.1059 H       1  UNL1        0.0633
     40 H           4.6765    1.0149    0.7959 H       1  UNL1        0.0814
@<TRIPOS>BOND
     1     1     2    2
     2     2     3    1
     3     2    22   am
     4     3     4   ar
     5     3    20   ar
     6     4     5   ar
     7     5     6    1
     8     5    18   ar
     9     6     7    1
    10     7     8   ar
    11     7    17   ar
    12     8     9   ar
    13     9    10   ar
    14    10    11    2
    15    10    12   ar
    16    12    13   ar
    17    12    17   ar
    18    13    14   ar
    19    14    15   ar
    20    15    16   ar
    21    16    17   ar
    22    18    19   ar
    23    19    20   ar
    24    20    21    1
    25    22    23   ar
    26    22    26   ar
    27    23    24   ar
    28    24    25   ar
    29    25    26   ar
    30     4    27    1
    31     6    28    1
    32     6    29    1
    33     9    30    1
    34    13    31    1
    35    14    32    1
    36    15    33    1
    37    16    34    1
    38    18    35    1
    39    19    36    1
    40    23    37    1
    41    24    38    1
    42    25    39    1
    43    26    40    1
@<TRIPOS>MOLECULE
../data/bude_mols_rdkit_confs2/molecule_64.pdb
 40 43 0 0 0
SMALL
GASTEIGER

@<TRIPOS>ATOM
      1  O1        -4.9200   -1.3990   -0.4240 O.2     1  UNL1       -0.2666
      2  C1        -3.8740   -0.6960   -0.2210 C.2     1  UNL1        0.2652
      3  C2        -2.6580   -1.4310    0.0760 C.ar    1  UNL1        0.0752
      4  C3        -1.4440   -1.1060   -0.4520 C.ar    1  UNL1       -0.0431
      5  C4        -0.2560   -1.7920   -0.1710 C.ar    1  UNL1       -0.0406
      6  C5         1.0430   -1.3840   -0.7710 C.3     1  UNL1        0.0171
      7  C6         1.7610   -0.4760    0.0910 C.ar    1  UNL1        0.0736
      8  N1         1.2380   -0.1490    1.2840 N.ar    1  UNL1       -0.1750
      9  N2         1.8510    0.6740    2.1190 N.ar    1  UNL1       -0.2425
     10  C7         3.0350    1.2350    1.8290 C.ar    1  UNL1        0.2725
     11  O2         3.6300    2.0230    2.6200 O.2     1  UNL1       -0.2658
     12  C8         3.6460    0.9500    0.6170 C.ar    1  UNL1        0.0496
     13  C9         4.8660    1.5170    0.2970 C.ar    1  UNL1       -0.0487
     14  C10        5.4260    1.2000   -0.9220 C.ar    1  UNL1       -0.0610
     15  C11        4.7630    0.3400   -1.7720 C.ar    1  UNL1       -0.0611
     16  C12        3.5490   -0.2260   -1.4540 C.ar    1  UNL1       -0.0521
     17  C13        2.9760    0.0840   -0.2350 C.ar    1  UNL1        0.0106
     18  C14       -0.2960   -2.8610    0.6860 C.ar    1  UNL1       -0.0555
     19  C15       -1.5170   -3.2010    1.2260 C.ar    1  UNL1       -0.0254
     20  C16       -2.6770   -2.5210    0.9450 C.ar    1  UNL1        0.1357
     21  F1        -3.8820   -2.8540    1.4750 F       1  UNL1       -0.2047
     22  N3        -3.9940    0.7010   -0.3020 N.ar    1  UNL1       -0.2903
     23  C17       -3.0530    1.6580   -0.1150 C.ar    1  UNL1        0.0127
     24  C18       -3.6100    2.9180   -0.3140 C.ar    1  UNL1       -0.0437
     25  C19       -4.9220    2.7180   -0.6280 C.ar    1  UNL1       -0.0437
     26  C20       -5.1240    1.3580   -0.6120 C.ar    1  UNL1        0.0127
     27 H          -1.3975   -0.3038   -1.0996 H       1  UNL1        0.0629
     28 H           0.8571   -0.9009   -1.7074 H       1  UNL1        0.0377
     29 H           1.6404   -2.2611   -0.9073 H       1  UNL1        0.0377
     30 H           1.4244    0.8817    2.9816 H       1  UNL1        0.1921
     31 H           5.3425    2.1578    0.9507 H       1  UNL1        0.0625
     32 H           6.3353    1.6035   -1.1967 H       1  UNL1        0.0618
     33 H           5.1936    0.1119   -2.6817 H       1  UNL1        0.0618
     34 H           3.0775   -0.8672   -2.1109 H       1  UNL1        0.0624
     35 H           0.5578   -3.3921    0.9184 H       1  UNL1        0.0621
     36 H          -1.5623   -4.0045    1.8721 H       1  UNL1        0.0646
     37 H          -2.0686    1.4790    0.1377 H       1  UNL1        0.0814
     38 H          -3.1251    3.8259   -0.2387 H       1  UNL1        0.0633
     39 H          -5.6248    3.4444   -0.8365 H       1  UNL1        0.0633
     40 H          -6.0273    0.9009   -0.8123 H       1  UNL1        0.0814
@<TRIPOS>BOND
     1     1     2    2
     2     2     3    1
     3     2    22   am
     4     3     4   ar
     5     3    20   ar
     6     4     5   ar
     7     5     6    1
     8     5    18   ar
     9     6     7    1
    10     7     8   ar
    11     7    17   ar
    12     8     9   ar
    13     9    10   ar
    14    10    11    2
    15    10    12   ar
    16    12    13   ar
    17    12    17   ar
    18    13    14   ar
    19    14    15   ar
    20    15    16   ar
    21    16    17   ar
    22    18    19   ar
    23    19    20   ar
    24    20    21    1
    25    22    23   ar
    26    22    26   ar
    27    23    24   ar
    28    24    25   ar
    29    25    26   ar
    30     4    27    1
    31     6    28    1
    32     6    29    1
    33     9    30    1
    34    13    31    1
    35    14    32    1
    36    15    33    1
    37    16    34    1
    38    18    35    1
    39    19    36    1
    40    23    37    1
    41    24    38    1
    42    25    39    1
    43    26    40    1
@<TRIPOS>MOLECULE
../data/bude_mols_rdkit_confs2/molecule_64.pdb
 40 43 0 0 0
SMALL
GASTEIGER

@<TRIPOS>ATOM
      1  O1         4.2900   -1.1090   -2.1720 O.2     1  UNL1       -0.2666
      2  C1         3.7870   -0.4150   -1.2640 C.2     1  UNL1        0.2652
      3  C2         2.3640   -0.1680   -1.2530 C.ar    1  UNL1        0.0752
      4  C3         1.5550   -0.3090   -0.1610 C.ar    1  UNL1       -0.0431
      5  C4         0.1740   -0.0230   -0.1650 C.ar    1  UNL1       -0.0406
      6  C5        -0.6150   -0.2360    1.0610 C.3     1  UNL1        0.0171
      7  C6        -1.9200   -0.8870    0.8920 C.ar    1  UNL1        0.0736
      8  N1        -2.0240   -2.2470    0.9100 N.ar    1  UNL1       -0.1750
      9  N2        -3.1720   -2.8640    0.7000 N.ar    1  UNL1       -0.2425
     10  C7        -4.3330   -2.2290    0.4540 C.ar    1  UNL1        0.2725
     11  O2        -5.4210   -2.8060    0.2530 O.2     1  UNL1       -0.2658
     12  C8        -4.3060   -0.8580    0.4220 C.ar    1  UNL1        0.0496
     13  C9        -5.4530   -0.1060    0.2050 C.ar    1  UNL1       -0.0487
     14  C10       -5.4440    1.2750    0.2000 C.ar    1  UNL1       -0.0610
     15  C11       -4.2460    1.9190    0.4210 C.ar    1  UNL1       -0.0611
     16  C12       -3.1240    1.1580    0.6330 C.ar    1  UNL1       -0.0521
     17  C13       -3.1110   -0.2180    0.6400 C.ar    1  UNL1        0.0106
     18  C14       -0.3940    0.4180   -1.3240 C.ar    1  UNL1       -0.0555
     19  C15        0.4150    0.5690   -2.4580 C.ar    1  UNL1       -0.0254
     20  C16        1.7570    0.2850   -2.4280 C.ar    1  UNL1        0.1357
     21  F1         2.5570    0.4250   -3.5160 F       1  UNL1       -0.2047
     22  N3         4.6270    0.1180   -0.2620 N.ar    1  UNL1       -0.2903
     23  C17        4.2400    0.8880    0.7640 C.ar    1  UNL1        0.0127
     24  C18        5.3600    1.2060    1.5320 C.ar    1  UNL1       -0.0437
     25  C19        6.4230    0.5910    0.9150 C.ar    1  UNL1       -0.0437
     26  C20        5.9790   -0.0790   -0.1890 C.ar    1  UNL1        0.0127
     27 H           1.9792   -0.6443    0.7180 H       1  UNL1        0.0629
     28 H          -0.7839    0.7205    1.5098 H       1  UNL1        0.0377
     29 H          -0.0364   -0.9094    1.6582 H       1  UNL1        0.0377
     30 H          -3.1794   -3.8482    0.7248 H       1  UNL1        0.1921
     31 H          -6.3456   -0.5975    0.0413 H       1  UNL1        0.0625
     32 H          -6.3109    1.8101    0.0352 H       1  UNL1        0.0618
     33 H          -4.1938    2.9497    0.4269 H       1  UNL1        0.0618
     34 H          -2.2318    1.6497    0.7979 H       1  UNL1        0.0624
     35 H          -1.4018    0.6366   -1.3650 H       1  UNL1        0.0621
     36 H          -0.0092    0.9022   -3.3378 H       1  UNL1        0.0646
     37 H           3.2733    1.1949    0.9544 H       1  UNL1        0.0814
     38 H           5.3853    1.7837    2.3868 H       1  UNL1        0.0633
     39 H           7.4031    0.6295    1.2357 H       1  UNL1        0.0633
     40 H           6.5547   -0.6301   -0.8447 H       1  UNL1        0.0814
@<TRIPOS>BOND
     1     1     2    2
     2     2     3    1
     3     2    22   am
     4     3     4   ar
     5     3    20   ar
     6     4     5   ar
     7     5     6    1
     8     5    18   ar
     9     6     7    1
    10     7     8   ar
    11     7    17   ar
    12     8     9   ar
    13     9    10   ar
    14    10    11    2
    15    10    12   ar
    16    12    13   ar
    17    12    17   ar
    18    13    14   ar
    19    14    15   ar
    20    15    16   ar
    21    16    17   ar
    22    18    19   ar
    23    19    20   ar
    24    20    21    1
    25    22    23   ar
    26    22    26   ar
    27    23    24   ar
    28    24    25   ar
    29    25    26   ar
    30     4    27    1
    31     6    28    1
    32     6    29    1
    33     9    30    1
    34    13    31    1
    35    14    32    1
    36    15    33    1
    37    16    34    1
    38    18    35    1
    39    19    36    1
    40    23    37    1
    41    24    38    1
    42    25    39    1
    43    26    40    1
@<TRIPOS>MOLECULE
../data/bude_mols_rdkit_confs2/molecule_64.pdb
 40 43 0 0 0
SMALL
GASTEIGER

@<TRIPOS>ATOM
      1  O1         2.8090   -0.9440   -2.0720 O.2     1  UNL1       -0.2666
      2  C1         3.2400   -0.2750   -1.0700 C.2     1  UNL1        0.2652
      3  C2         2.2680    0.5450   -0.3570 C.ar    1  UNL1        0.0752
      4  C3         1.0670   -0.0640    0.0300 C.ar    1  UNL1       -0.0431
      5  C4         0.0710    0.6330    0.6750 C.ar    1  UNL1       -0.0406
      6  C5        -1.2170    0.0050    1.0920 C.3     1  UNL1        0.0171
      7  C6        -2.2210    0.0660   -0.0000 C.ar    1  UNL1        0.0736
      8  N1        -1.9620    0.5760   -1.2080 N.ar    1  UNL1       -0.1750
      9  N2        -2.8920    0.6070   -2.1600 N.ar    1  UNL1       -0.2425
     10  C7        -4.1370    0.1230   -1.9410 C.ar    1  UNL1        0.2725
     11  O2        -5.0240    0.1500   -2.8450 O.2     1  UNL1       -0.2658
     12  C8        -4.4520   -0.4080   -0.7270 C.ar    1  UNL1        0.0496
     13  C9        -5.7070   -0.9080   -0.4730 C.ar    1  UNL1       -0.0487
     14  C10       -6.0110   -1.4400    0.7560 C.ar    1  UNL1       -0.0610
     15  C11       -5.0680   -1.4860    1.7610 C.ar    1  UNL1       -0.0611
     16  C12       -3.8100   -0.9780    1.4890 C.ar    1  UNL1       -0.0521
     17  C13       -3.4700   -0.4370    0.2680 C.ar    1  UNL1        0.0106
     18  C14        0.2990    1.9710    0.9310 C.ar    1  UNL1       -0.0555
     19  C15        1.4820    2.5900    0.5550 C.ar    1  UNL1       -0.0254
     20  C16        2.4830    1.8750   -0.0980 C.ar    1  UNL1        0.1357
     21  F1         3.6150    2.5080   -0.4830 F       1  UNL1       -0.2047
     22  N3         4.6070   -0.3930   -0.7490 N.ar    1  UNL1       -0.2903
     23  C17        5.2290    0.2070    0.2770 C.ar    1  UNL1        0.0127
     24  C18        6.5560   -0.1530    0.2060 C.ar    1  UNL1       -0.0437
     25  C19        6.7050   -0.9800   -0.8820 C.ar    1  UNL1       -0.0437
     26  C20        5.4740   -1.1300   -1.4830 C.ar    1  UNL1        0.0127
     27 H           0.9250   -1.0655   -0.1748 H       1  UNL1        0.0629
     28 H          -1.5982    0.5243    1.9463 H       1  UNL1        0.0377
     29 H          -1.0331   -1.0226    1.3269 H       1  UNL1        0.0377
     30 H          -2.6701    0.9891   -3.0398 H       1  UNL1        0.1921
     31 H          -6.4268   -0.8834   -1.2121 H       1  UNL1        0.0625
     32 H          -6.9584   -1.8105    0.9298 H       1  UNL1        0.0618
     33 H          -5.2930   -1.8860    2.6853 H       1  UNL1        0.0618
     34 H          -3.0952   -1.0054    2.2329 H       1  UNL1        0.0624
     35 H          -0.4276    2.5229    1.4132 H       1  UNL1        0.0621
     36 H           1.6220    3.5914    0.7614 H       1  UNL1        0.0646
     37 H           4.7957    0.8210    0.9843 H       1  UNL1        0.0814
     38 H           7.3035    0.1442    0.8525 H       1  UNL1        0.0633
     39 H           7.5874   -1.4141   -1.1950 H       1  UNL1        0.0633
     40 H           5.2570   -1.6902   -2.3221 H       1  UNL1        0.0814
@<TRIPOS>BOND
     1     1     2    2
     2     2     3    1
     3     2    22   am
     4     3     4   ar
     5     3    20   ar
     6     4     5   ar
     7     5     6    1
     8     5    18   ar
     9     6     7    1
    10     7     8   ar
    11     7    17   ar
    12     8     9   ar
    13     9    10   ar
    14    10    11    2
    15    10    12   ar
    16    12    13   ar
    17    12    17   ar
    18    13    14   ar
    19    14    15   ar
    20    15    16   ar
    21    16    17   ar
    22    18    19   ar
    23    19    20   ar
    24    20    21    1
    25    22    23   ar
    26    22    26   ar
    27    23    24   ar
    28    24    25   ar
    29    25    26   ar
    30     4    27    1
    31     6    28    1
    32     6    29    1
    33     9    30    1
    34    13    31    1
    35    14    32    1
    36    15    33    1
    37    16    34    1
    38    18    35    1
    39    19    36    1
    40    23    37    1
    41    24    38    1
    42    25    39    1
    43    26    40    1
@<TRIPOS>MOLECULE
../data/bude_mols_rdkit_confs2/molecule_64.pdb
 40 43 0 0 0
SMALL
GASTEIGER

@<TRIPOS>ATOM
      1  O1         2.1570   -0.5010    2.2960 O.2     1  UNL1       -0.2666
      2  C1         2.7300   -0.2760    1.2000 C.2     1  UNL1        0.2652
      3  C2         1.9150    0.1670    0.0900 C.ar    1  UNL1        0.0752
      4  C3         0.7690   -0.5370   -0.2890 C.ar    1  UNL1       -0.0431
      5  C4        -0.0390   -0.1420   -1.3030 C.ar    1  UNL1       -0.0406
      6  C5        -1.2580   -0.8640   -1.7070 C.3     1  UNL1        0.0171
      7  C6        -2.5140   -0.2010   -1.3890 C.ar    1  UNL1        0.0736
      8  N1        -3.1130    0.5680   -2.3470 N.ar    1  UNL1       -0.1750
      9  N2        -4.2100    1.2480   -2.1720 N.ar    1  UNL1       -0.2425
     10  C7        -4.8180    1.2160   -0.9900 C.ar    1  UNL1        0.2725
     11  O2        -5.8760    1.8820   -0.8450 O.2     1  UNL1       -0.2658
     12  C8        -4.2970    0.4770    0.0250 C.ar    1  UNL1        0.0496
     13  C9        -4.9310    0.4300    1.2490 C.ar    1  UNL1       -0.0487
     14  C10       -4.3990   -0.3290    2.2510 C.ar    1  UNL1       -0.0610
     15  C11       -3.2320   -1.0510    2.0530 C.ar    1  UNL1       -0.0611
     16  C12       -2.5860   -1.0150    0.8370 C.ar    1  UNL1       -0.0521
     17  C13       -3.1180   -0.2520   -0.1690 C.ar    1  UNL1        0.0106
     18  C14        0.2730    1.0100   -2.0060 C.ar    1  UNL1       -0.0555
     19  C15        1.3960    1.7300   -1.6590 C.ar    1  UNL1       -0.0254
     20  C16        2.2200    1.3130   -0.6110 C.ar    1  UNL1        0.1357
     21  F1         3.3030    2.0970   -0.3060 F       1  UNL1       -0.2047
     22  N3         4.1310   -0.4700    1.1240 N.ar    1  UNL1       -0.2903
     23  C17        4.9320   -0.3150    0.0630 C.ar    1  UNL1        0.0127
     24  C18        6.2600   -0.5840    0.3950 C.ar    1  UNL1       -0.0437
     25  C19        6.2440   -0.9190    1.7250 C.ar    1  UNL1       -0.0437
     26  C20        4.9480   -0.8480    2.1620 C.ar    1  UNL1        0.0127
     27 H           0.5267   -1.3973    0.2269 H       1  UNL1        0.0629
     28 H          -1.2547   -1.8157   -1.2179 H       1  UNL1        0.0377
     29 H          -1.2215   -0.9272   -2.7745 H       1  UNL1        0.0377
     30 H          -4.5860    1.7814   -2.9091 H       1  UNL1        0.1921
     31 H          -5.8000    0.9640    1.4059 H       1  UNL1        0.0625
     32 H          -4.8715   -0.3659    3.1677 H       1  UNL1        0.0618
     33 H          -2.8446   -1.6195    2.8223 H       1  UNL1        0.0618
     34 H          -1.7179   -1.5524    0.6866 H       1  UNL1        0.0624
     35 H          -0.3294    1.3261   -2.7820 H       1  UNL1        0.0621
     36 H           1.6312    2.5889   -2.1806 H       1  UNL1        0.0646
     37 H           4.6099   -0.0338   -0.8762 H       1  UNL1        0.0814
     38 H           7.0812   -0.5402   -0.2285 H       1  UNL1        0.0633
     39 H           7.0638   -1.1787    2.2956 H       1  UNL1        0.0633
     40 H           4.6331   -1.0479    3.1242 H       1  UNL1        0.0814
@<TRIPOS>BOND
     1     1     2    2
     2     2     3    1
     3     2    22   am
     4     3     4   ar
     5     3    20   ar
     6     4     5   ar
     7     5     6    1
     8     5    18   ar
     9     6     7    1
    10     7     8   ar
    11     7    17   ar
    12     8     9   ar
    13     9    10   ar
    14    10    11    2
    15    10    12   ar
    16    12    13   ar
    17    12    17   ar
    18    13    14   ar
    19    14    15   ar
    20    15    16   ar
    21    16    17   ar
    22    18    19   ar
    23    19    20   ar
    24    20    21    1
    25    22    23   ar
    26    22    26   ar
    27    23    24   ar
    28    24    25   ar
    29    25    26   ar
    30     4    27    1
    31     6    28    1
    32     6    29    1
    33     9    30    1
    34    13    31    1
    35    14    32    1
    36    15    33    1
    37    16    34    1
    38    18    35    1
    39    19    36    1
    40    23    37    1
    41    24    38    1
    42    25    39    1
    43    26    40    1
@<TRIPOS>MOLECULE
../data/bude_mols_rdkit_confs2/molecule_64.pdb
 40 43 0 0 0
SMALL
GASTEIGER

@<TRIPOS>ATOM
      1  O1         3.8070    1.9270   -1.2530 O.2     1  UNL1       -0.2666
      2  C1         3.6640    0.8510   -0.5410 C.2     1  UNL1        0.2652
      3  C2         2.4290    0.7430    0.1910 C.ar    1  UNL1        0.0752
      4  C3         1.2500    0.9630   -0.4850 C.ar    1  UNL1       -0.0431
      5  C4         0.0090    0.9590    0.1510 C.ar    1  UNL1       -0.0406
      6  C5        -1.2080    1.2040   -0.6680 C.3     1  UNL1        0.0171
      7  C6        -2.1650    0.0930   -0.5780 C.ar    1  UNL1        0.0736
      8  N1        -1.7420   -1.1810   -0.7590 N.ar    1  UNL1       -0.1750
      9  N2        -2.4810   -2.2490   -0.6370 N.ar    1  UNL1       -0.2425
     10  C7        -3.7740   -2.1280   -0.3060 C.ar    1  UNL1        0.2725
     11  O2        -4.4820   -3.1710   -0.1870 O.2     1  UNL1       -0.2658
     12  C8        -4.2950   -0.8790   -0.1030 C.ar    1  UNL1        0.0496
     13  C9        -5.6370   -0.7660    0.1840 C.ar    1  UNL1       -0.0487
     14  C10       -6.1670    0.4920    0.3330 C.ar    1  UNL1       -0.0610
     15  C11       -5.4030    1.6270    0.2070 C.ar    1  UNL1       -0.0611
     16  C12       -4.0420    1.4990   -0.0810 C.ar    1  UNL1       -0.0521
     17  C13       -3.5100    0.2360   -0.2330 C.ar    1  UNL1        0.0106
     18  C14       -0.0160    0.7280    1.4840 C.ar    1  UNL1       -0.0555
     19  C15        1.1700    0.5020    2.1860 C.ar    1  UNL1       -0.0254
     20  C16        2.4020    0.5060    1.5500 C.ar    1  UNL1        0.1357
     21  F1         3.5300    0.2960    2.2760 F       1  UNL1       -0.2047
     22  N3         4.7460   -0.0510   -0.5940 N.ar    1  UNL1       -0.2903
     23  C17        5.9070    0.1280   -1.3000 C.ar    1  UNL1        0.0127
     24  C18        6.7190   -0.9840   -1.1360 C.ar    1  UNL1       -0.0437
     25  C19        6.0320   -1.8360   -0.3180 C.ar    1  UNL1       -0.0437
     26  C20        4.8010   -1.2600    0.0200 C.ar    1  UNL1        0.0127
     27 H           1.2860    1.1376   -1.5015 H       1  UNL1        0.0629
     28 H          -0.9173    1.3275   -1.6903 H       1  UNL1        0.0377
     29 H          -1.6872    2.0841   -0.2927 H       1  UNL1        0.0377
     30 H          -2.0905   -3.1401   -0.7874 H       1  UNL1        0.1921
     31 H          -6.2292   -1.6052    0.2845 H       1  UNL1        0.0625
     32 H          -7.1721    0.5881    0.5466 H       1  UNL1        0.0618
     33 H          -5.8282    2.5601    0.3234 H       1  UNL1        0.0618
     34 H          -3.4451    2.3352   -0.1783 H       1  UNL1        0.0624
     35 H          -0.9179    0.7188    1.9855 H       1  UNL1        0.0621
     36 H           1.1284    0.3279    3.2024 H       1  UNL1        0.0646
     37 H           6.1402    0.9596   -1.8648 H       1  UNL1        0.0814
     38 H           7.6527   -1.1370   -1.5481 H       1  UNL1        0.0633
     39 H           6.3674   -2.7585    0.0005 H       1  UNL1        0.0633
     40 H           4.0734   -1.6762    0.6220 H       1  UNL1        0.0814
@<TRIPOS>BOND
     1     1     2    2
     2     2     3    1
     3     2    22   am
     4     3     4   ar
     5     3    20   ar
     6     4     5   ar
     7     5     6    1
     8     5    18   ar
     9     6     7    1
    10     7     8   ar
    11     7    17   ar
    12     8     9   ar
    13     9    10   ar
    14    10    11    2
    15    10    12   ar
    16    12    13   ar
    17    12    17   ar
    18    13    14   ar
    19    14    15   ar
    20    15    16   ar
    21    16    17   ar
    22    18    19   ar
    23    19    20   ar
    24    20    21    1
    25    22    23   ar
    26    22    26   ar
    27    23    24   ar
    28    24    25   ar
    29    25    26   ar
    30     4    27    1
    31     6    28    1
    32     6    29    1
    33     9    30    1
    34    13    31    1
    35    14    32    1
    36    15    33    1
    37    16    34    1
    38    18    35    1
    39    19    36    1
    40    23    37    1
    41    24    38    1
    42    25    39    1
    43    26    40    1
@<TRIPOS>MOLECULE
../data/bude_mols_rdkit_confs2/molecule_64.pdb
 40 43 0 0 0
SMALL
GASTEIGER

@<TRIPOS>ATOM
      1  O1         4.2640   -1.0880   -1.8050 O.2     1  UNL1       -0.2666
      2  C1         3.6790   -0.6240   -0.7730 C.2     1  UNL1        0.2652
      3  C2         2.4640   -1.2690   -0.3370 C.ar    1  UNL1        0.0752
      4  C3         1.3300   -0.6290    0.0990 C.ar    1  UNL1       -0.0431
      5  C4         0.1820   -1.2970    0.5290 C.ar    1  UNL1       -0.0406
      6  C5        -1.0240   -0.5540    0.9930 C.3     1  UNL1        0.0171
      7  C6        -1.9510   -0.2930   -0.1250 C.ar    1  UNL1        0.0736
      8  N1        -1.6620   -0.6990   -1.3650 N.ar    1  UNL1       -0.1750
      9  N2        -2.5300   -0.4420   -2.3480 N.ar    1  UNL1       -0.2425
     10  C7        -3.6810    0.2000   -2.1710 C.ar    1  UNL1        0.2725
     11  O2        -4.4720    0.4220   -3.1250 O.2     1  UNL1       -0.2658
     12  C8        -4.0290    0.6380   -0.9300 C.ar    1  UNL1        0.0496
     13  C9        -5.2110    1.3060   -0.7030 C.ar    1  UNL1       -0.0487
     14  C10       -5.5450    1.7420    0.5650 C.ar    1  UNL1       -0.0610
     15  C11       -4.6470    1.4810    1.6030 C.ar    1  UNL1       -0.0611
     16  C12       -3.4650    0.8100    1.3690 C.ar    1  UNL1       -0.0521
     17  C13       -3.1230    0.3720    0.1060 C.ar    1  UNL1        0.0106
     18  C14        0.2060   -2.6760    0.5080 C.ar    1  UNL1       -0.0555
     19  C15        1.3130   -3.3850    0.0800 C.ar    1  UNL1       -0.0254
     20  C16        2.4130   -2.6700   -0.3310 C.ar    1  UNL1        0.1357
     21  F1         3.5270   -3.3460   -0.7590 F       1  UNL1       -0.2047
     22  N3         4.2690    0.4920   -0.1310 N.ar    1  UNL1       -0.2903
     23  C17        5.4000    1.1210   -0.5290 C.ar    1  UNL1        0.0127
     24  C18        5.7380    2.1500    0.2920 C.ar    1  UNL1       -0.0437
     25  C19        4.7760    2.1840    1.2690 C.ar    1  UNL1       -0.0437
     26  C20        3.8870    1.1490    0.9780 C.ar    1  UNL1        0.0127
     27 H           1.3262    0.4029    0.1094 H       1  UNL1        0.0629
     28 H          -0.7175    0.3791    1.4177 H       1  UNL1        0.0377
     29 H          -1.5309   -1.1511    1.7220 H       1  UNL1        0.0377
     30 H          -2.3040   -0.7459   -3.2568 H       1  UNL1        0.1921
     31 H          -5.8555    1.4833   -1.4893 H       1  UNL1        0.0625
     32 H          -6.4294    2.2443    0.7397 H       1  UNL1        0.0618
     33 H          -4.8717    1.7953    2.5600 H       1  UNL1        0.0618
     34 H          -2.8219    0.6315    2.1561 H       1  UNL1        0.0624
     35 H          -0.6290   -3.1950    0.8218 H       1  UNL1        0.0621
     36 H           1.3136   -4.4169    0.0694 H       1  UNL1        0.0646
     37 H           5.9445    0.8494   -1.3625 H       1  UNL1        0.0814
     38 H           6.5521    2.7775    0.1992 H       1  UNL1        0.0633
     39 H           4.7208    2.8433    2.0610 H       1  UNL1        0.0633
     40 H           3.0507    0.9192    1.5374 H       1  UNL1        0.0814
@<TRIPOS>BOND
     1     1     2    2
     2     2     3    1
     3     2    22   am
     4     3     4   ar
     5     3    20   ar
     6     4     5   ar
     7     5     6    1
     8     5    18   ar
     9     6     7    1
    10     7     8   ar
    11     7    17   ar
    12     8     9   ar
    13     9    10   ar
    14    10    11    2
    15    10    12   ar
    16    12    13   ar
    17    12    17   ar
    18    13    14   ar
    19    14    15   ar
    20    15    16   ar
    21    16    17   ar
    22    18    19   ar
    23    19    20   ar
    24    20    21    1
    25    22    23   ar
    26    22    26   ar
    27    23    24   ar
    28    24    25   ar
    29    25    26   ar
    30     4    27    1
    31     6    28    1
    32     6    29    1
    33     9    30    1
    34    13    31    1
    35    14    32    1
    36    15    33    1
    37    16    34    1
    38    18    35    1
    39    19    36    1
    40    23    37    1
    41    24    38    1
    42    25    39    1
    43    26    40    1
@<TRIPOS>MOLECULE
../data/bude_mols_rdkit_confs2/molecule_64.pdb
 40 43 0 0 0
SMALL
GASTEIGER

@<TRIPOS>ATOM
      1  O1        -3.0240    0.0070    2.9150 O.2     1  UNL1       -0.2666
      2  C1        -3.1320    0.2420    1.7000 C.2     1  UNL1        0.2652
      3  C2        -2.0050    0.6520    0.8840 C.ar    1  UNL1        0.0752
      4  C3        -1.1710   -0.2520    0.2290 C.ar    1  UNL1       -0.0431
      5  C4        -0.1060    0.1940   -0.5680 C.ar    1  UNL1       -0.0406
      6  C5         0.7250   -0.8150   -1.2230 C.3     1  UNL1        0.0171
      7  C6         1.9280   -1.2320   -0.4830 C.ar    1  UNL1        0.0736
      8  N1         1.8590   -2.2720    0.4010 N.ar    1  UNL1       -0.1750
      9  N2         2.8610   -2.6520    1.1430 N.ar    1  UNL1       -0.2425
     10  C7         4.0610   -2.0470    1.0990 C.ar    1  UNL1        0.2725
     11  O2         5.0230   -2.4350    1.8340 O.2     1  UNL1       -0.2658
     12  C8         4.2170   -0.9900    0.2320 C.ar    1  UNL1        0.0496
     13  C9         5.4350   -0.3670    0.1470 C.ar    1  UNL1       -0.0487
     14  C10        5.6170    0.6850   -0.7420 C.ar    1  UNL1       -0.0610
     15  C11        4.5730    1.0970   -1.5340 C.ar    1  UNL1       -0.0611
     16  C12        3.3460    0.4460   -1.4260 C.ar    1  UNL1       -0.0521
     17  C13        3.1340   -0.5900   -0.5610 C.ar    1  UNL1        0.0106
     18  C14        0.0680    1.5280   -0.6660 C.ar    1  UNL1       -0.0555
     19  C15       -0.7580    2.4500   -0.0150 C.ar    1  UNL1       -0.0254
     20  C16       -1.7840    2.0010    0.7510 C.ar    1  UNL1        0.1357
     21  F1        -2.5830    2.8940    1.3810 F       1  UNL1       -0.2047
     22  N3        -4.4020    0.1100    1.0770 N.ar    1  UNL1       -0.2903
     23  C17       -4.7040    0.3270   -0.2260 C.ar    1  UNL1        0.0127
     24  C18       -6.0380    0.1000   -0.4550 C.ar    1  UNL1       -0.0437
     25  C19       -6.5910   -0.2700    0.7330 C.ar    1  UNL1       -0.0437
     26  C20       -5.5610   -0.2540    1.6570 C.ar    1  UNL1        0.0127
     27 H          -1.3393   -1.2650    0.3317 H       1  UNL1        0.0629
     28 H           1.0401   -0.4194   -2.1659 H       1  UNL1        0.0377
     29 H           0.1136   -1.6896   -1.3010 H       1  UNL1        0.0377
     30 H           2.7345   -3.4100    1.7584 H       1  UNL1        0.1921
     31 H           6.2170   -0.6795    0.7435 H       1  UNL1        0.0625
     32 H           6.5333    1.1553   -0.8071 H       1  UNL1        0.0618
     33 H           4.6957    1.8768   -2.1988 H       1  UNL1        0.0618
     34 H           2.5653    0.7592   -2.0239 H       1  UNL1        0.0624
     35 H           0.8439    1.8836   -1.2462 H       1  UNL1        0.0621
     36 H          -0.5886    3.4629   -0.1164 H       1  UNL1        0.0646
     37 H          -4.0256    0.6218   -0.9457 H       1  UNL1        0.0814
     38 H          -6.5295    0.1924   -1.3577 H       1  UNL1        0.0633
     39 H          -7.5784   -0.5132    0.9087 H       1  UNL1        0.0633
     40 H          -5.6671   -0.4894    2.6562 H       1  UNL1        0.0814
@<TRIPOS>BOND
     1     1     2    2
     2     2     3    1
     3     2    22   am
     4     3     4   ar
     5     3    20   ar
     6     4     5   ar
     7     5     6    1
     8     5    18   ar
     9     6     7    1
    10     7     8   ar
    11     7    17   ar
    12     8     9   ar
    13     9    10   ar
    14    10    11    2
    15    10    12   ar
    16    12    13   ar
    17    12    17   ar
    18    13    14   ar
    19    14    15   ar
    20    15    16   ar
    21    16    17   ar
    22    18    19   ar
    23    19    20   ar
    24    20    21    1
    25    22    23   ar
    26    22    26   ar
    27    23    24   ar
    28    24    25   ar
    29    25    26   ar
    30     4    27    1
    31     6    28    1
    32     6    29    1
    33     9    30    1
    34    13    31    1
    35    14    32    1
    36    15    33    1
    37    16    34    1
    38    18    35    1
    39    19    36    1
    40    23    37    1
    41    24    38    1
    42    25    39    1
    43    26    40    1
@<TRIPOS>MOLECULE
../data/bude_mols_rdkit_confs2/molecule_64.pdb
 40 43 0 0 0
SMALL
GASTEIGER

@<TRIPOS>ATOM
      1  O1         3.2710   -0.9490    2.5450 O.2     1  UNL1       -0.2666
      2  C1         3.2680   -0.3210    1.4290 C.2     1  UNL1        0.2652
      3  C2         2.2110    0.6620    1.1880 C.ar    1  UNL1        0.0752
      4  C3         0.8850    0.2640    1.3640 C.ar    1  UNL1       -0.0431
      5  C4        -0.1480    1.1540    1.1790 C.ar    1  UNL1       -0.0406
      6  C5        -1.5700    0.7200    1.3680 C.3     1  UNL1        0.0171
      7  C6        -2.0410    0.2390    0.0280 C.ar    1  UNL1        0.0736
      8  N1        -1.2790    0.2670   -1.0660 N.ar    1  UNL1       -0.1750
      9  N2        -1.6740   -0.1500   -2.2580 N.ar    1  UNL1       -0.2425
     10  C7        -2.9110   -0.6410   -2.4200 C.ar    1  UNL1        0.2725
     11  O2        -3.3010   -1.0410   -3.5460 O.2     1  UNL1       -0.2658
     12  C8        -3.7480   -0.6960   -1.3260 C.ar    1  UNL1        0.0496
     13  C9        -5.0120   -1.1950   -1.4770 C.ar    1  UNL1       -0.0487
     14  C10       -5.8550   -1.2560   -0.3920 C.ar    1  UNL1       -0.0610
     15  C11       -5.4300   -0.8170    0.8450 C.ar    1  UNL1       -0.0611
     16  C12       -4.1620   -0.3090    1.0330 C.ar    1  UNL1       -0.0521
     17  C13       -3.3230   -0.2530   -0.0700 C.ar    1  UNL1        0.0106
     18  C14        0.1700    2.4430    0.8170 C.ar    1  UNL1       -0.0555
     19  C15        1.4750    2.8400    0.6430 C.ar    1  UNL1       -0.0254
     20  C16        2.5350    1.9430    0.8290 C.ar    1  UNL1        0.1357
     21  F1         3.8170    2.3430    0.6840 F       1  UNL1       -0.2047
     22  N3         4.2940   -0.6330    0.5110 N.ar    1  UNL1       -0.2903
     23  C17        5.2790   -1.5180    0.7420 C.ar    1  UNL1        0.0127
     24  C18        6.0870   -1.5920   -0.3930 C.ar    1  UNL1       -0.0437
     25  C19        5.5680   -0.7270   -1.3240 C.ar    1  UNL1       -0.0437
     26  C20        4.4520   -0.1520   -0.7180 C.ar    1  UNL1        0.0127
     27 H           0.6767   -0.7094    1.6361 H       1  UNL1        0.0629
     28 H          -2.1685    1.5432    1.6982 H       1  UNL1        0.0377
     29 H          -1.6485   -0.0485    2.1083 H       1  UNL1        0.0377
     30 H          -1.0597   -0.0997   -3.0257 H       1  UNL1        0.1921
     31 H          -5.3321   -1.5244   -2.4011 H       1  UNL1        0.0625
     32 H          -6.8096   -1.6318   -0.5036 H       1  UNL1        0.0618
     33 H          -6.0760   -0.8701    1.6481 H       1  UNL1        0.0618
     34 H          -3.8487    0.0176    1.9605 H       1  UNL1        0.0624
     35 H          -0.5886    3.1277    0.6727 H       1  UNL1        0.0621
     36 H           1.6769    3.8148    0.3709 H       1  UNL1        0.0646
     37 H           5.4149   -2.0535    1.6137 H       1  UNL1        0.0814
     38 H           6.9215   -2.1876   -0.5109 H       1  UNL1        0.0633
     39 H           5.9283   -0.5414   -2.2731 H       1  UNL1        0.0633
     40 H           3.8360    0.5477   -1.1607 H       1  UNL1        0.0814
@<TRIPOS>BOND
     1     1     2    2
     2     2     3    1
     3     2    22   am
     4     3     4   ar
     5     3    20   ar
     6     4     5   ar
     7     5     6    1
     8     5    18   ar
     9     6     7    1
    10     7     8   ar
    11     7    17   ar
    12     8     9   ar
    13     9    10   ar
    14    10    11    2
    15    10    12   ar
    16    12    13   ar
    17    12    17   ar
    18    13    14   ar
    19    14    15   ar
    20    15    16   ar
    21    16    17   ar
    22    18    19   ar
    23    19    20   ar
    24    20    21    1
    25    22    23   ar
    26    22    26   ar
    27    23    24   ar
    28    24    25   ar
    29    25    26   ar
    30     4    27    1
    31     6    28    1
    32     6    29    1
    33     9    30    1
    34    13    31    1
    35    14    32    1
    36    15    33    1
    37    16    34    1
    38    18    35    1
    39    19    36    1
    40    23    37    1
    41    24    38    1
    42    25    39    1
    43    26    40    1
@<TRIPOS>MOLECULE
../data/bude_mols_rdkit_confs2/molecule_64.pdb
 40 43 0 0 0
SMALL
GASTEIGER

@<TRIPOS>ATOM
      1  O1         2.4680   -0.7050    2.4320 O.2     1  UNL1       -0.2666
      2  C1         2.9910   -0.2550    1.3520 C.2     1  UNL1        0.2652
      3  C2         2.1560    0.3790    0.3500 C.ar    1  UNL1        0.0752
      4  C3         0.9940   -0.2800   -0.0840 C.ar    1  UNL1       -0.0431
      5  C4         0.1700    0.3200   -0.9970 C.ar    1  UNL1       -0.0406
      6  C5        -1.0830   -0.3760   -1.4330 C.3     1  UNL1        0.0171
      7  C6        -2.0900   -0.1550   -0.3360 C.ar    1  UNL1        0.0736
      8  N1        -1.6840    0.1450    0.9170 N.ar    1  UNL1       -0.1750
      9  N2        -2.5350    0.3400    1.9090 N.ar    1  UNL1       -0.2425
     10  C7        -3.8400    0.2430    1.6910 C.ar    1  UNL1        0.2725
     11  O2        -4.6120    0.4410    2.6800 O.2     1  UNL1       -0.2658
     12  C8        -4.3030   -0.0590    0.4330 C.ar    1  UNL1        0.0496
     13  C9        -5.6590   -0.1560    0.2200 C.ar    1  UNL1       -0.0487
     14  C10       -6.1520   -0.4630   -1.0490 C.ar    1  UNL1       -0.0610
     15  C11       -5.2880   -0.6730   -2.1080 C.ar    1  UNL1       -0.0611
     16  C12       -3.9230   -0.5720   -1.8800 C.ar    1  UNL1       -0.0521
     17  C13       -3.4150   -0.2710   -0.6370 C.ar    1  UNL1        0.0106
     18  C14        0.4980    1.5580   -1.4760 C.ar    1  UNL1       -0.0555
     19  C15        1.6550    2.2160   -1.0450 C.ar    1  UNL1       -0.0254
     20  C16        2.4970    1.6270   -0.1230 C.ar    1  UNL1        0.1357
     21  F1         3.5960    2.3250    0.3150 F       1  UNL1       -0.2047
     22  N3         4.3870   -0.3790    1.1350 N.ar    1  UNL1       -0.2903
     23  C17        5.1080   -0.0030    0.0670 C.ar    1  UNL1        0.0127
     24  C18        6.4440   -0.2930    0.3250 C.ar    1  UNL1       -0.0437
     25  C19        6.4730   -0.8480    1.5770 C.ar    1  UNL1       -0.0437
     26  C20        5.1990   -0.9070    2.0880 C.ar    1  UNL1        0.0127
     27 H           0.7620   -1.2154    0.2852 H       1  UNL1        0.0629
     28 H          -0.9000   -1.4222   -1.5632 H       1  UNL1        0.0377
     29 H          -1.4355    0.0056   -2.3684 H       1  UNL1        0.0377
     30 H          -2.2008    0.5571    2.8092 H       1  UNL1        0.1921
     31 H          -6.3143   -0.0011    1.0021 H       1  UNL1        0.0625
     32 H          -7.1707   -0.5339   -1.1984 H       1  UNL1        0.0618
     33 H          -5.6504   -0.8999   -3.0473 H       1  UNL1        0.0618
     34 H          -3.2706   -0.7269   -2.6645 H       1  UNL1        0.0624
     35 H          -0.1180    2.0145   -2.1668 H       1  UNL1        0.0621
     36 H           1.8812    3.1505   -1.4199 H       1  UNL1        0.0646
     37 H           4.7363    0.4262   -0.7948 H       1  UNL1        0.0814
     38 H           7.2485   -0.1245   -0.2991 H       1  UNL1        0.0633
     39 H           7.3235   -1.1728    2.0631 H       1  UNL1        0.0633
     40 H           4.9161   -1.2772    3.0088 H       1  UNL1        0.0814
@<TRIPOS>BOND
     1     1     2    2
     2     2     3    1
     3     2    22   am
     4     3     4   ar
     5     3    20   ar
     6     4     5   ar
     7     5     6    1
     8     5    18   ar
     9     6     7    1
    10     7     8   ar
    11     7    17   ar
    12     8     9   ar
    13     9    10   ar
    14    10    11    2
    15    10    12   ar
    16    12    13   ar
    17    12    17   ar
    18    13    14   ar
    19    14    15   ar
    20    15    16   ar
    21    16    17   ar
    22    18    19   ar
    23    19    20   ar
    24    20    21    1
    25    22    23   ar
    26    22    26   ar
    27    23    24   ar
    28    24    25   ar
    29    25    26   ar
    30     4    27    1
    31     6    28    1
    32     6    29    1
    33     9    30    1
    34    13    31    1
    35    14    32    1
    36    15    33    1
    37    16    34    1
    38    18    35    1
    39    19    36    1
    40    23    37    1
    41    24    38    1
    42    25    39    1
    43    26    40    1
@<TRIPOS>MOLECULE
../data/bude_mols_rdkit_confs2/molecule_64.pdb
 40 43 0 0 0
SMALL
GASTEIGER

@<TRIPOS>ATOM
      1  O1         3.4750   -2.2390   -1.3460 O.2     1  UNL1       -0.2666
      2  C1         3.5100   -1.1220   -0.7460 C.2     1  UNL1        0.2652
      3  C2         2.2370   -0.4460   -0.5940 C.ar    1  UNL1        0.0752
      4  C3         1.1280   -1.0900   -0.0540 C.ar    1  UNL1       -0.0431
      5  C4        -0.1160   -0.4850    0.0730 C.ar    1  UNL1       -0.0406
      6  C5        -1.1770   -1.3010    0.6770 C.3     1  UNL1        0.0171
      7  C6        -2.3590   -0.5600    1.1400 C.ar    1  UNL1        0.0736
      8  N1        -2.4960   -0.2430    2.4620 N.ar    1  UNL1       -0.1750
      9  N2        -3.5430    0.4370    2.9000 N.ar    1  UNL1       -0.2425
     10  C7        -4.5390    0.8650    2.1060 C.ar    1  UNL1        0.2725
     11  O2        -5.5140    1.5110    2.5820 O.2     1  UNL1       -0.2658
     12  C8        -4.4740    0.5820    0.7490 C.ar    1  UNL1        0.0496
     13  C9        -5.4760    0.9930   -0.1020 C.ar    1  UNL1       -0.0487
     14  C10       -5.4020    0.6950   -1.4440 C.ar    1  UNL1       -0.0610
     15  C11       -4.3020   -0.0150   -1.8780 C.ar    1  UNL1       -0.0611
     16  C12       -3.2870   -0.4360   -1.0460 C.ar    1  UNL1       -0.0521
     17  C13       -3.3720   -0.1290    0.3110 C.ar    1  UNL1        0.0106
     18  C14       -0.2290    0.8020   -0.3590 C.ar    1  UNL1       -0.0555
     19  C15        0.8600    1.4630   -0.9010 C.ar    1  UNL1       -0.0254
     20  C16        2.0940    0.8460   -1.0220 C.ar    1  UNL1        0.1357
     21  F1         3.1030    1.5730   -1.6000 F       1  UNL1       -0.2047
     22  N3         4.7530   -0.6320   -0.2800 N.ar    1  UNL1       -0.2903
     23  C17        4.9520    0.5040    0.3890 C.ar    1  UNL1        0.0127
     24  C18        6.3090    0.6260    0.6390 C.ar    1  UNL1       -0.0437
     25  C19        6.9420   -0.4620    0.1090 C.ar    1  UNL1       -0.0437
     26  C20        5.9650   -1.2360   -0.4590 C.ar    1  UNL1        0.0127
     27 H           1.2349   -2.0647    0.2679 H       1  UNL1        0.0629
     28 H          -0.7596   -1.8146    1.5178 H       1  UNL1        0.0377
     29 H          -1.5236   -1.9526   -0.0978 H       1  UNL1        0.0377
     30 H          -3.5953    0.6409    3.8617 H       1  UNL1        0.1921
     31 H          -6.2811    1.5236    0.2659 H       1  UNL1        0.0625
     32 H          -6.1413    0.9915   -2.1002 H       1  UNL1        0.0618
     33 H          -4.2352   -0.2439   -2.8821 H       1  UNL1        0.0618
     34 H          -2.4835   -0.9657   -1.4187 H       1  UNL1        0.0624
     35 H          -1.1355    1.2891   -0.2815 H       1  UNL1        0.0621
     36 H           0.7498    2.4375   -1.2221 H       1  UNL1        0.0646
     37 H           4.2216    1.1760    0.6716 H       1  UNL1        0.0814
     38 H           6.7637    1.4054    1.1399 H       1  UNL1        0.0633
     39 H           7.9543   -0.6612    0.1319 H       1  UNL1        0.0633
     40 H           6.1200   -2.1331   -0.9450 H       1  UNL1        0.0814
@<TRIPOS>BOND
     1     1     2    2
     2     2     3    1
     3     2    22   am
     4     3     4   ar
     5     3    20   ar
     6     4     5   ar
     7     5     6    1
     8     5    18   ar
     9     6     7    1
    10     7     8   ar
    11     7    17   ar
    12     8     9   ar
    13     9    10   ar
    14    10    11    2
    15    10    12   ar
    16    12    13   ar
    17    12    17   ar
    18    13    14   ar
    19    14    15   ar
    20    15    16   ar
    21    16    17   ar
    22    18    19   ar
    23    19    20   ar
    24    20    21    1
    25    22    23   ar
    26    22    26   ar
    27    23    24   ar
    28    24    25   ar
    29    25    26   ar
    30     4    27    1
    31     6    28    1
    32     6    29    1
    33     9    30    1
    34    13    31    1
    35    14    32    1
    36    15    33    1
    37    16    34    1
    38    18    35    1
    39    19    36    1
    40    23    37    1
    41    24    38    1
    42    25    39    1
    43    26    40    1
@<TRIPOS>MOLECULE
../data/bude_mols_rdkit_confs2/molecule_64.pdb
 40 43 0 0 0
SMALL
GASTEIGER

@<TRIPOS>ATOM
      1  O1         2.8850    2.1800   -0.4190 O.2     1  UNL1       -0.2666
      2  C1         3.2000    0.9730   -0.1180 C.2     1  UNL1        0.2652
      3  C2         2.0840    0.0880    0.1900 C.ar    1  UNL1        0.0752
      4  C3         1.0280    0.1040   -0.6960 C.ar    1  UNL1       -0.0431
      5  C4        -0.1200   -0.6690   -0.5590 C.ar    1  UNL1       -0.0406
      6  C5        -1.2030   -0.5410   -1.5540 C.3     1  UNL1        0.0171
      7  C6        -2.2610    0.3200   -1.0080 C.ar    1  UNL1        0.0736
      8  N1        -2.1020    1.6670   -1.1650 N.ar    1  UNL1       -0.1750
      9  N2        -2.9510    2.5070   -0.6270 N.ar    1  UNL1       -0.2425
     10  C7        -4.0130    2.1370    0.0950 C.ar    1  UNL1        0.2725
     11  O2        -4.8240    2.9500    0.6100 O.2     1  UNL1       -0.2658
     12  C8        -4.2470    0.7930    0.2980 C.ar    1  UNL1        0.0496
     13  C9        -5.3230    0.3110    0.9940 C.ar    1  UNL1       -0.0487
     14  C10       -5.5610   -1.0480    1.1580 C.ar    1  UNL1       -0.0610
     15  C11       -4.6630   -1.9240    0.5860 C.ar    1  UNL1       -0.0611
     16  C12       -3.5740   -1.4350   -0.1170 C.ar    1  UNL1       -0.0521
     17  C13       -3.3420   -0.0850   -0.2740 C.ar    1  UNL1        0.0106
     18  C14       -0.1770   -1.4830    0.5270 C.ar    1  UNL1       -0.0555
     19  C15        0.8780   -1.5260    1.4520 C.ar    1  UNL1       -0.0254
     20  C16        2.0000   -0.7340    1.2700 C.ar    1  UNL1        0.1357
     21  F1         2.9870   -0.7590    2.2060 F       1  UNL1       -0.2047
     22  N3         4.5680    0.6180   -0.1160 N.ar    1  UNL1       -0.2903
     23  C17        5.1280   -0.5760    0.1570 C.ar    1  UNL1        0.0127
     24  C18        6.5110   -0.4080    0.0180 C.ar    1  UNL1       -0.0437
     25  C19        6.7780    0.9030   -0.3430 C.ar    1  UNL1       -0.0437
     26  C20        5.5480    1.5070   -0.4140 C.ar    1  UNL1        0.0127
     27 H           1.0936    0.7300   -1.5138 H       1  UNL1        0.0629
     28 H          -1.6054   -1.5083   -1.7715 H       1  UNL1        0.0377
     29 H          -0.8160   -0.1090   -2.4532 H       1  UNL1        0.0377
     30 H          -2.7973    3.4699   -0.7628 H       1  UNL1        0.1921
     31 H          -5.9835    0.9839    1.4135 H       1  UNL1        0.0625
     32 H          -6.3786   -1.3887    1.6876 H       1  UNL1        0.0618
     33 H          -4.8018   -2.9422    0.6814 H       1  UNL1        0.0618
     34 H          -2.9124   -2.1056   -0.5385 H       1  UNL1        0.0624
     35 H          -1.0073   -2.0780    0.6740 H       1  UNL1        0.0621
     36 H           0.8175   -2.1505    2.2714 H       1  UNL1        0.0646
     37 H           4.6346   -1.4442    0.4175 H       1  UNL1        0.0814
     38 H           7.2197   -1.1443    0.1617 H       1  UNL1        0.0633
     39 H           7.7001    1.3313   -0.5198 H       1  UNL1        0.0633
     40 H           5.3909    2.4970   -0.6593 H       1  UNL1        0.0814
@<TRIPOS>BOND
     1     1     2    2
     2     2     3    1
     3     2    22   am
     4     3     4   ar
     5     3    20   ar
     6     4     5   ar
     7     5     6    1
     8     5    18   ar
     9     6     7    1
    10     7     8   ar
    11     7    17   ar
    12     8     9   ar
    13     9    10   ar
    14    10    11    2
    15    10    12   ar
    16    12    13   ar
    17    12    17   ar
    18    13    14   ar
    19    14    15   ar
    20    15    16   ar
    21    16    17   ar
    22    18    19   ar
    23    19    20   ar
    24    20    21    1
    25    22    23   ar
    26    22    26   ar
    27    23    24   ar
    28    24    25   ar
    29    25    26   ar
    30     4    27    1
    31     6    28    1
    32     6    29    1
    33     9    30    1
    34    13    31    1
    35    14    32    1
    36    15    33    1
    37    16    34    1
    38    18    35    1
    39    19    36    1
    40    23    37    1
    41    24    38    1
    42    25    39    1
    43    26    40    1
@<TRIPOS>MOLECULE
../data/bude_mols_rdkit_confs2/molecule_64.pdb
 40 43 0 0 0
SMALL
GASTEIGER

@<TRIPOS>ATOM
      1  O1         4.0780   -2.4110   -0.7300 O.2     1  UNL1       -0.2666
      2  C1         3.7030   -1.3060   -0.2650 C.2     1  UNL1        0.2652
      3  C2         2.3190   -1.0400    0.1470 C.ar    1  UNL1        0.0752
      4  C3         1.3600   -0.6120   -0.7290 C.ar    1  UNL1       -0.0431
      5  C4         0.0520   -0.3520   -0.3120 C.ar    1  UNL1       -0.0406
      6  C5        -0.8850    0.0850   -1.3720 C.3     1  UNL1        0.0171
      7  C6        -2.2690   -0.3520   -1.2220 C.ar    1  UNL1        0.0736
      8  N1        -2.6570   -1.5060   -1.7770 N.ar    1  UNL1       -0.1750
      9  N2        -3.8640   -2.0010   -1.6660 N.ar    1  UNL1       -0.2425
     10  C7        -4.8280   -1.3580   -0.9600 C.ar    1  UNL1        0.2725
     11  O2        -5.9830   -1.8090   -0.8400 O.2     1  UNL1       -0.2658
     12  C8        -4.4990   -0.1620   -0.3620 C.ar    1  UNL1        0.0496
     13  C9        -5.4150    0.5890    0.3630 C.ar    1  UNL1       -0.0487
     14  C10       -5.0570    1.7930    0.9280 C.ar    1  UNL1       -0.0610
     15  C11       -3.7620    2.2890    0.7860 C.ar    1  UNL1       -0.0611
     16  C12       -2.8470    1.5480    0.0690 C.ar    1  UNL1       -0.0521
     17  C13       -3.2120    0.3450   -0.4930 C.ar    1  UNL1        0.0106
     18  C14       -0.3020   -0.5230    0.9940 C.ar    1  UNL1       -0.0555
     19  C15        0.6700   -0.9620    1.9060 C.ar    1  UNL1       -0.0254
     20  C16        1.9500   -1.2110    1.4720 C.ar    1  UNL1        0.1357
     21  F1         2.9290   -1.6370    2.3220 F       1  UNL1       -0.2047
     22  N3         4.6990   -0.2760   -0.1440 N.ar    1  UNL1       -0.2903
     23  C17        4.4770    0.9570    0.3260 C.ar    1  UNL1        0.0127
     24  C18        5.6160    1.7220    0.3260 C.ar    1  UNL1       -0.0437
     25  C19        6.6000    0.8920   -0.1820 C.ar    1  UNL1       -0.0437
     26  C20        5.9970   -0.3380   -0.4620 C.ar    1  UNL1        0.0127
     27 H           1.6083   -0.4779   -1.7217 H       1  UNL1        0.0629
     28 H          -0.5221   -0.2917   -2.3054 H       1  UNL1        0.0377
     29 H          -0.9114    1.1530   -1.3114 H       1  UNL1        0.0377
     30 H          -4.0764   -2.8569   -2.1036 H       1  UNL1        0.1921
     31 H          -6.3789    0.2395    0.4802 H       1  UNL1        0.0625
     32 H          -5.7550    2.3338    1.4622 H       1  UNL1        0.0618
     33 H          -3.4940    3.1916    1.2086 H       1  UNL1        0.0618
     34 H          -1.8828    1.8969   -0.0473 H       1  UNL1        0.0624
     35 H          -1.2672   -0.3330    1.3059 H       1  UNL1        0.0621
     36 H           0.4245   -1.0974    2.8992 H       1  UNL1        0.0646
     37 H           3.5568    1.2932    0.6505 H       1  UNL1        0.0814
     38 H           5.7168    2.7010    0.6365 H       1  UNL1        0.0633
     39 H           7.5924    1.1352   -0.3269 H       1  UNL1        0.0633
     40 H           6.4775   -1.1636   -0.8525 H       1  UNL1        0.0814
@<TRIPOS>BOND
     1     1     2    2
     2     2     3    1
     3     2    22   am
     4     3     4   ar
     5     3    20   ar
     6     4     5   ar
     7     5     6    1
     8     5    18   ar
     9     6     7    1
    10     7     8   ar
    11     7    17   ar
    12     8     9   ar
    13     9    10   ar
    14    10    11    2
    15    10    12   ar
    16    12    13   ar
    17    12    17   ar
    18    13    14   ar
    19    14    15   ar
    20    15    16   ar
    21    16    17   ar
    22    18    19   ar
    23    19    20   ar
    24    20    21    1
    25    22    23   ar
    26    22    26   ar
    27    23    24   ar
    28    24    25   ar
    29    25    26   ar
    30     4    27    1
    31     6    28    1
    32     6    29    1
    33     9    30    1
    34    13    31    1
    35    14    32    1
    36    15    33    1
    37    16    34    1
    38    18    35    1
    39    19    36    1
    40    23    37    1
    41    24    38    1
    42    25    39    1
    43    26    40    1
@<TRIPOS>MOLECULE
../data/bude_mols_rdkit_confs2/molecule_64.pdb
 40 43 0 0 0
SMALL
GASTEIGER

@<TRIPOS>ATOM
      1  O1         2.4240   -1.8830   -1.3140 O.2     1  UNL1       -0.2666
      2  C1         3.0020   -0.8070   -0.9120 C.2     1  UNL1        0.2652
      3  C2         2.1330    0.3450   -0.6900 C.ar    1  UNL1        0.0752
      4  C3         0.9860    0.1400    0.0700 C.ar    1  UNL1       -0.0431
      5  C4         0.0830    1.1460    0.3220 C.ar    1  UNL1       -0.0406
      6  C5        -1.1210    0.8260    1.1500 C.3     1  UNL1        0.0171
      7  C6        -2.2050    0.3980    0.2760 C.ar    1  UNL1        0.0736
      8  N1        -2.1040    0.5010   -1.0540 N.ar    1  UNL1       -0.1750
      9  N2        -3.0860    0.1190   -1.8410 N.ar    1  UNL1       -0.2425
     10  C7        -4.2260   -0.3870   -1.3760 C.ar    1  UNL1        0.2725
     11  O2        -5.1440   -0.7420   -2.1610 O.2     1  UNL1       -0.2658
     12  C8        -4.4130   -0.5290   -0.0160 C.ar    1  UNL1        0.0496
     13  C9        -5.5670   -1.0470    0.5250 C.ar    1  UNL1       -0.0487
     14  C10       -5.6940   -1.1660    1.8900 C.ar    1  UNL1       -0.0610
     15  C11       -4.6760   -0.7700    2.6980 C.ar    1  UNL1       -0.0611
     16  C12       -3.5260   -0.2520    2.1520 C.ar    1  UNL1       -0.0521
     17  C13       -3.3690   -0.1220    0.8000 C.ar    1  UNL1        0.0106
     18  C14        0.3240    2.3920   -0.1950 C.ar    1  UNL1       -0.0555
     19  C15        1.4510    2.6200   -0.9500 C.ar    1  UNL1       -0.0254
     20  C16        2.3510    1.6000   -1.1960 C.ar    1  UNL1        0.1357
     21  F1         3.4610    1.8300   -1.9790 F       1  UNL1       -0.2047
     22  N3         4.3950   -0.8430   -0.7250 N.ar    1  UNL1       -0.2903
     23  C17        5.1750   -1.9110   -0.9580 C.ar    1  UNL1        0.0127
     24  C18        6.4970   -1.6130   -0.6370 C.ar    1  UNL1       -0.0437
     25  C19        6.5020   -0.3240   -0.2010 C.ar    1  UNL1       -0.0437
     26  C20        5.1890    0.1210   -0.2670 C.ar    1  UNL1        0.0127
     27 H           0.8066   -0.7993    0.4580 H       1  UNL1        0.0629
     28 H          -1.4227    1.6967    1.6939 H       1  UNL1        0.0377
     29 H          -0.8848    0.0422    1.8391 H       1  UNL1        0.0377
     30 H          -2.9733    0.2111   -2.8147 H       1  UNL1        0.1921
     31 H          -6.3374   -1.3463   -0.0929 H       1  UNL1        0.0625
     32 H          -6.5587   -1.5543    2.2982 H       1  UNL1        0.0618
     33 H          -4.7663   -0.8582    3.7222 H       1  UNL1        0.0618
     34 H          -2.7618    0.0463    2.7782 H       1  UNL1        0.0624
     35 H          -0.3413    3.1607   -0.0176 H       1  UNL1        0.0621
     36 H           1.6262    3.5608   -1.3362 H       1  UNL1        0.0646
     37 H           4.8438   -2.8184   -1.3212 H       1  UNL1        0.0814
     38 H           7.3102   -2.2436   -0.7143 H       1  UNL1        0.0633
     39 H           7.3216    0.2168    0.1166 H       1  UNL1        0.0633
     40 H           4.8733    1.0662    0.0013 H       1  UNL1        0.0814
@<TRIPOS>BOND
     1     1     2    2
     2     2     3    1
     3     2    22   am
     4     3     4   ar
     5     3    20   ar
     6     4     5   ar
     7     5     6    1
     8     5    18   ar
     9     6     7    1
    10     7     8   ar
    11     7    17   ar
    12     8     9   ar
    13     9    10   ar
    14    10    11    2
    15    10    12   ar
    16    12    13   ar
    17    12    17   ar
    18    13    14   ar
    19    14    15   ar
    20    15    16   ar
    21    16    17   ar
    22    18    19   ar
    23    19    20   ar
    24    20    21    1
    25    22    23   ar
    26    22    26   ar
    27    23    24   ar
    28    24    25   ar
    29    25    26   ar
    30     4    27    1
    31     6    28    1
    32     6    29    1
    33     9    30    1
    34    13    31    1
    35    14    32    1
    36    15    33    1
    37    16    34    1
    38    18    35    1
    39    19    36    1
    40    23    37    1
    41    24    38    1
    42    25    39    1
    43    26    40    1
@<TRIPOS>MOLECULE
../data/bude_mols_rdkit_confs2/molecule_64.pdb
 40 43 0 0 0
SMALL
GASTEIGER

@<TRIPOS>ATOM
      1  O1         2.1920    1.9530   -0.8900 O.2     1  UNL1       -0.2666
      2  C1         2.7440    1.0050   -0.2590 C.2     1  UNL1        0.2652
      3  C2         1.8760    0.0770    0.4710 C.ar    1  UNL1        0.0752
      4  C3         0.8030   -0.5180   -0.1890 C.ar    1  UNL1       -0.0431
      5  C4        -0.0510   -1.3590    0.4270 C.ar    1  UNL1       -0.0406
      6  C5        -1.2170   -1.9830   -0.2970 C.3     1  UNL1        0.0171
      7  C6        -2.5140   -1.4500    0.1320 C.ar    1  UNL1        0.0736
      8  N1        -3.2490   -2.1050    1.0910 N.ar    1  UNL1       -0.1750
      9  N2        -4.3930   -1.6450    1.5400 N.ar    1  UNL1       -0.2425
     10  C7        -4.9560   -0.5080    1.1180 C.ar    1  UNL1        0.2725
     11  O2        -6.0710   -0.1270    1.6040 O.2     1  UNL1       -0.2658
     12  C8        -4.2930    0.2120    0.1590 C.ar    1  UNL1        0.0496
     13  C9        -4.8390    1.3810   -0.3160 C.ar    1  UNL1       -0.0487
     14  C10       -4.1820    2.0980   -1.2880 C.ar    1  UNL1       -0.0610
     15  C11       -2.9730    1.6580   -1.7990 C.ar    1  UNL1       -0.0611
     16  C12       -2.4510    0.4700   -1.2930 C.ar    1  UNL1       -0.0521
     17  C13       -3.0720   -0.2810   -0.3190 C.ar    1  UNL1        0.0106
     18  C14        0.1390   -1.6530    1.7770 C.ar    1  UNL1       -0.0555
     19  C15        1.1820   -1.0840    2.4470 C.ar    1  UNL1       -0.0254
     20  C16        2.0480   -0.2190    1.7920 C.ar    1  UNL1        0.1357
     21  F1         3.0520    0.3510    2.4920 F       1  UNL1       -0.2047
     22  N3         4.1450    0.8730   -0.2780 N.ar    1  UNL1       -0.2903
     23  C17        4.9380   -0.0500    0.2870 C.ar    1  UNL1        0.0127
     24  C18        6.2670    0.2740   -0.0080 C.ar    1  UNL1       -0.0437
     25  C19        6.2750    1.4070   -0.7620 C.ar    1  UNL1       -0.0437
     26  C20        4.9590    1.7650   -0.9210 C.ar    1  UNL1        0.0127
     27 H           0.6565   -0.3065   -1.1884 H       1  UNL1        0.0629
     28 H          -1.2055   -3.0374   -0.1154 H       1  UNL1        0.0377
     29 H          -1.1063   -1.7536   -1.3362 H       1  UNL1        0.0377
     30 H          -4.8645   -2.1679    2.2281 H       1  UNL1        0.1921
     31 H          -5.7400    1.7196    0.0562 H       1  UNL1        0.0625
     32 H          -4.5954    2.9752   -1.6411 H       1  UNL1        0.0618
     33 H          -2.4759    2.1915   -2.5293 H       1  UNL1        0.0618
     34 H          -1.5502    0.1340   -1.6680 H       1  UNL1        0.0624
     35 H          -0.5042   -2.2957    2.2650 H       1  UNL1        0.0621
     36 H           1.3281   -1.2976    3.4460 H       1  UNL1        0.0646
     37 H           4.6222   -0.8597    0.8435 H       1  UNL1        0.0814
     38 H           7.0992   -0.2559    0.2946 H       1  UNL1        0.0633
     39 H           7.1018    1.8972   -1.1377 H       1  UNL1        0.0633
     40 H           4.6311    2.5885   -1.4495 H       1  UNL1        0.0814
@<TRIPOS>BOND
     1     1     2    2
     2     2     3    1
     3     2    22   am
     4     3     4   ar
     5     3    20   ar
     6     4     5   ar
     7     5     6    1
     8     5    18   ar
     9     6     7    1
    10     7     8   ar
    11     7    17   ar
    12     8     9   ar
    13     9    10   ar
    14    10    11    2
    15    10    12   ar
    16    12    13   ar
    17    12    17   ar
    18    13    14   ar
    19    14    15   ar
    20    15    16   ar
    21    16    17   ar
    22    18    19   ar
    23    19    20   ar
    24    20    21    1
    25    22    23   ar
    26    22    26   ar
    27    23    24   ar
    28    24    25   ar
    29    25    26   ar
    30     4    27    1
    31     6    28    1
    32     6    29    1
    33     9    30    1
    34    13    31    1
    35    14    32    1
    36    15    33    1
    37    16    34    1
    38    18    35    1
    39    19    36    1
    40    23    37    1
    41    24    38    1
    42    25    39    1
    43    26    40    1
@<TRIPOS>MOLECULE
../data/bude_mols_rdkit_confs2/molecule_64.pdb
 40 43 0 0 0
SMALL
GASTEIGER

@<TRIPOS>ATOM
      1  O1         4.2710   -1.8290   -1.2870 O.2     1  UNL1       -0.2666
      2  C1         3.3420   -1.0110   -0.9420 C.2     1  UNL1        0.2652
      3  C2         2.0520   -1.6050   -0.6390 C.ar    1  UNL1        0.0752
      4  C3         1.2310   -1.2460    0.3950 C.ar    1  UNL1       -0.0431
      5  C4        -0.0170   -1.8360    0.6300 C.ar    1  UNL1       -0.0406
      6  C5        -0.8390   -1.4030    1.7870 C.3     1  UNL1        0.0171
      7  C6        -1.4000   -0.0950    1.5040 C.ar    1  UNL1        0.0736
      8  N1        -0.6790    0.9740    1.9650 N.ar    1  UNL1       -0.1750
      9  N2        -1.0370    2.2160    1.7390 N.ar    1  UNL1       -0.2425
     10  C7        -2.1260    2.5330    1.0440 C.ar    1  UNL1        0.2725
     11  O2        -2.4590    3.7260    0.8330 O.2     1  UNL1       -0.2658
     12  C8        -2.9020    1.5120    0.5480 C.ar    1  UNL1        0.0496
     13  C9        -4.0540    1.8230   -0.1720 C.ar    1  UNL1       -0.0487
     14  C10       -4.8260    0.7830   -0.6470 C.ar    1  UNL1       -0.0610
     15  C11       -4.4300   -0.5200   -0.3920 C.ar    1  UNL1       -0.0611
     16  C12       -3.2830   -0.8060    0.3240 C.ar    1  UNL1       -0.0521
     17  C13       -2.5180    0.2180    0.7920 C.ar    1  UNL1        0.0106
     18  C14       -0.4560   -2.8260   -0.2050 C.ar    1  UNL1       -0.0555
     19  C15        0.3490   -3.2240   -1.2710 C.ar    1  UNL1       -0.0254
     20  C16        1.5700   -2.6250   -1.4760 C.ar    1  UNL1        0.1357
     21  F1         2.3300   -3.0400   -2.5280 F       1  UNL1       -0.2047
     22  N3         3.6410    0.3720   -0.8880 N.ar    1  UNL1       -0.2903
     23  C17        2.8290    1.3940   -0.5680 C.ar    1  UNL1        0.0127
     24  C18        3.5310    2.5950   -0.6400 C.ar    1  UNL1       -0.0437
     25  C19        4.8030    2.2960   -1.0130 C.ar    1  UNL1       -0.0437
     26  C20        4.8480    0.9340   -1.1590 C.ar    1  UNL1        0.0127
     27 H           1.5481   -0.5014    1.0353 H       1  UNL1        0.0629
     28 H          -0.2261   -1.3488    2.6624 H       1  UNL1        0.0377
     29 H          -1.6277   -2.1065    1.9539 H       1  UNL1        0.0377
     30 H          -0.4774    2.9421    2.0981 H       1  UNL1        0.1921
     31 H          -4.3222    2.8044   -0.3451 H       1  UNL1        0.0625
     32 H          -5.6862    0.9729   -1.1846 H       1  UNL1        0.0618
     33 H          -5.0074   -1.2984   -0.7465 H       1  UNL1        0.0618
     34 H          -3.0095   -1.7851    0.5019 H       1  UNL1        0.0624
     35 H          -1.3727   -3.2732   -0.0477 H       1  UNL1        0.0621
     36 H           0.0281   -3.9699   -1.9079 H       1  UNL1        0.0646
     37 H           1.8345    1.3027   -0.3079 H       1  UNL1        0.0814
     38 H           3.1551    3.5364   -0.4462 H       1  UNL1        0.0633
     39 H           5.5791    2.9608   -1.1573 H       1  UNL1        0.0633
     40 H           5.6887    0.4045   -1.4382 H       1  UNL1        0.0814
@<TRIPOS>BOND
     1     1     2    2
     2     2     3    1
     3     2    22   am
     4     3     4   ar
     5     3    20   ar
     6     4     5   ar
     7     5     6    1
     8     5    18   ar
     9     6     7    1
    10     7     8   ar
    11     7    17   ar
    12     8     9   ar
    13     9    10   ar
    14    10    11    2
    15    10    12   ar
    16    12    13   ar
    17    12    17   ar
    18    13    14   ar
    19    14    15   ar
    20    15    16   ar
    21    16    17   ar
    22    18    19   ar
    23    19    20   ar
    24    20    21    1
    25    22    23   ar
    26    22    26   ar
    27    23    24   ar
    28    24    25   ar
    29    25    26   ar
    30     4    27    1
    31     6    28    1
    32     6    29    1
    33     9    30    1
    34    13    31    1
    35    14    32    1
    36    15    33    1
    37    16    34    1
    38    18    35    1
    39    19    36    1
    40    23    37    1
    41    24    38    1
    42    25    39    1
    43    26    40    1
@<TRIPOS>MOLECULE
../data/bude_mols_rdkit_confs2/molecule_64.pdb
 40 43 0 0 0
SMALL
GASTEIGER

@<TRIPOS>ATOM
      1  O1         4.2000   -2.1620    0.8980 O.2     1  UNL1       -0.2666
      2  C1         3.6480   -1.1120    0.4570 C.2     1  UNL1        0.2652
      3  C2         2.4900   -1.2950   -0.4030 C.ar    1  UNL1        0.0752
      4  C3         1.3600   -0.5140   -0.3180 C.ar    1  UNL1       -0.0431
      5  C4         0.2620   -0.6900   -1.1610 C.ar    1  UNL1       -0.0406
      6  C5        -0.9310    0.1820   -1.0260 C.3     1  UNL1        0.0171
      7  C6        -1.9390   -0.3530   -0.0930 C.ar    1  UNL1        0.0736
      8  N1        -1.8370   -1.5080    0.5770 N.ar    1  UNL1       -0.1750
      9  N2        -2.8040   -1.9150    1.4030 N.ar    1  UNL1       -0.2425
     10  C7        -3.9270   -1.1970    1.6110 C.ar    1  UNL1        0.2725
     11  O2        -4.8410   -1.5840    2.3930 O.2     1  UNL1       -0.2658
     12  C8        -4.0960    0.0080    0.9490 C.ar    1  UNL1        0.0496
     13  C9        -5.2280    0.7620    1.1380 C.ar    1  UNL1       -0.0487
     14  C10       -5.3780    1.9550    0.4720 C.ar    1  UNL1       -0.0610
     15  C11       -4.3880    2.3730   -0.3740 C.ar    1  UNL1       -0.0611
     16  C12       -3.2680    1.6000   -0.5450 C.ar    1  UNL1       -0.0521
     17  C13       -3.0770    0.3960    0.1040 C.ar    1  UNL1        0.0106
     18  C14        0.3670   -1.6980   -2.0950 C.ar    1  UNL1       -0.0555
     19  C15        1.4970   -2.4860   -2.1870 C.ar    1  UNL1       -0.0254
     20  C16        2.5780   -2.3100   -1.3540 C.ar    1  UNL1        0.1357
     21  F1         3.6920   -3.0770   -1.4340 F       1  UNL1       -0.2047
     22  N3         4.1990    0.1390    0.8310 N.ar    1  UNL1       -0.2903
     23  C17        5.2580    0.3210    1.6340 C.ar    1  UNL1        0.0127
     24  C18        5.5590    1.6320    1.7910 C.ar    1  UNL1       -0.0437
     25  C19        4.6590    2.3380    1.0590 C.ar    1  UNL1       -0.0437
     26  C20        3.8250    1.3830    0.4730 C.ar    1  UNL1        0.0127
     27 H           1.3233    0.2300    0.3962 H       1  UNL1        0.0629
     28 H          -1.3834    0.2909   -1.9895 H       1  UNL1        0.0377
     29 H          -0.5971    1.1185   -0.6305 H       1  UNL1        0.0377
     30 H          -2.6934   -2.7704    1.8776 H       1  UNL1        0.1921
     31 H          -5.9660    0.4330    1.7800 H       1  UNL1        0.0625
     32 H          -6.2258    2.5273    0.6084 H       1  UNL1        0.0618
     33 H          -4.4833    3.2664   -0.8817 H       1  UNL1        0.0618
     34 H          -2.5337    1.9337   -1.1888 H       1  UNL1        0.0624
     35 H          -0.4188   -1.8681   -2.7420 H       1  UNL1        0.0621
     36 H           1.5319   -3.2293   -2.9020 H       1  UNL1        0.0646
     37 H           5.7821   -0.4481    2.0800 H       1  UNL1        0.0814
     38 H           6.3273    2.0211    2.3596 H       1  UNL1        0.0633
     39 H           4.6031    3.3634    0.9572 H       1  UNL1        0.0633
     40 H           3.0309    1.6005   -0.1492 H       1  UNL1        0.0814
@<TRIPOS>BOND
     1     1     2    2
     2     2     3    1
     3     2    22   am
     4     3     4   ar
     5     3    20   ar
     6     4     5   ar
     7     5     6    1
     8     5    18   ar
     9     6     7    1
    10     7     8   ar
    11     7    17   ar
    12     8     9   ar
    13     9    10   ar
    14    10    11    2
    15    10    12   ar
    16    12    13   ar
    17    12    17   ar
    18    13    14   ar
    19    14    15   ar
    20    15    16   ar
    21    16    17   ar
    22    18    19   ar
    23    19    20   ar
    24    20    21    1
    25    22    23   ar
    26    22    26   ar
    27    23    24   ar
    28    24    25   ar
    29    25    26   ar
    30     4    27    1
    31     6    28    1
    32     6    29    1
    33     9    30    1
    34    13    31    1
    35    14    32    1
    36    15    33    1
    37    16    34    1
    38    18    35    1
    39    19    36    1
    40    23    37    1
    41    24    38    1
    42    25    39    1
    43    26    40    1
@<TRIPOS>MOLECULE
../data/bude_mols_rdkit_confs2/molecule_64.pdb
 40 43 0 0 0
SMALL
GASTEIGER

@<TRIPOS>ATOM
      1  O1        -2.6620    1.8010    2.1220 O.2     1  UNL1       -0.2666
      2  C1        -2.7630    0.9570    1.1620 C.2     1  UNL1        0.2652
      3  C2        -1.9010   -0.1950    1.2660 C.ar    1  UNL1        0.0752
      4  C3        -0.5290   -0.0790    1.5220 C.ar    1  UNL1       -0.0431
      5  C4         0.3130   -1.1160    1.6410 C.ar    1  UNL1       -0.0406
      6  C5         1.7800   -1.0730    1.8980 C.3     1  UNL1        0.0171
      7  C6         2.5700   -1.1610    0.6610 C.ar    1  UNL1        0.0736
      8  N1         2.9840   -2.3930    0.2170 N.ar    1  UNL1       -0.1750
      9  N2         3.6310   -2.5190   -0.9150 N.ar    1  UNL1       -0.2425
     10  C7         3.9360   -1.4880   -1.7130 C.ar    1  UNL1        0.2725
     11  O2         4.5590   -1.6350   -2.8000 O.2     1  UNL1       -0.2658
     12  C8         3.5500   -0.2140   -1.3270 C.ar    1  UNL1        0.0496
     13  C9         3.8630    0.8810   -2.1210 C.ar    1  UNL1       -0.0487
     14  C10        3.4830    2.1350   -1.7010 C.ar    1  UNL1       -0.0610
     15  C11        2.8050    2.3200   -0.5200 C.ar    1  UNL1       -0.0611
     16  C12        2.5040    1.2110    0.2550 C.ar    1  UNL1       -0.0521
     17  C13        2.8650   -0.0710   -0.1280 C.ar    1  UNL1        0.0106
     18  C14       -0.2440   -2.4030    1.4940 C.ar    1  UNL1       -0.0555
     19  C15       -1.5700   -2.5810    1.2460 C.ar    1  UNL1       -0.0254
     20  C16       -2.4060   -1.4610    1.1310 C.ar    1  UNL1        0.1357
     21  F1        -3.7190   -1.7170    0.9120 F       1  UNL1       -0.2047
     22  N3        -3.6790    1.2130    0.1090 N.ar    1  UNL1       -0.2903
     23  C17       -3.9460    0.5180   -0.9810 C.ar    1  UNL1        0.0127
     24  C18       -4.9390    1.1330   -1.7380 C.ar    1  UNL1       -0.0437
     25  C19       -5.2820    2.2660   -1.0530 C.ar    1  UNL1       -0.0437
     26  C20       -4.5000    2.2970    0.0760 C.ar    1  UNL1        0.0127
     27 H          -0.1387    0.8707    1.6263 H       1  UNL1        0.0629
     28 H           2.0418   -1.8944    2.5318 H       1  UNL1        0.0377
     29 H           2.0022   -0.1339    2.3602 H       1  UNL1        0.0377
     30 H           3.9083   -3.4214   -1.1944 H       1  UNL1        0.1921
     31 H           4.3716    0.7567   -3.0103 H       1  UNL1        0.0625
     32 H           3.7120    2.9542   -2.2854 H       1  UNL1        0.0618
     33 H           2.5255    3.2659   -0.2162 H       1  UNL1        0.0618
     34 H           1.9961    1.3439    1.1435 H       1  UNL1        0.0624
     35 H           0.3685   -3.2295    1.5765 H       1  UNL1        0.0621
     36 H          -1.9572   -3.5321    1.1434 H       1  UNL1        0.0646
     37 H          -3.4795   -0.3658   -1.2383 H       1  UNL1        0.0814
     38 H          -5.3348    0.8023   -2.6318 H       1  UNL1        0.0633
     39 H          -5.9910    2.9627   -1.3305 H       1  UNL1        0.0633
     40 H          -4.5310    3.0362    0.7955 H       1  UNL1        0.0814
@<TRIPOS>BOND
     1     1     2    2
     2     2     3    1
     3     2    22   am
     4     3     4   ar
     5     3    20   ar
     6     4     5   ar
     7     5     6    1
     8     5    18   ar
     9     6     7    1
    10     7     8   ar
    11     7    17   ar
    12     8     9   ar
    13     9    10   ar
    14    10    11    2
    15    10    12   ar
    16    12    13   ar
    17    12    17   ar
    18    13    14   ar
    19    14    15   ar
    20    15    16   ar
    21    16    17   ar
    22    18    19   ar
    23    19    20   ar
    24    20    21    1
    25    22    23   ar
    26    22    26   ar
    27    23    24   ar
    28    24    25   ar
    29    25    26   ar
    30     4    27    1
    31     6    28    1
    32     6    29    1
    33     9    30    1
    34    13    31    1
    35    14    32    1
    36    15    33    1
    37    16    34    1
    38    18    35    1
    39    19    36    1
    40    23    37    1
    41    24    38    1
    42    25    39    1
    43    26    40    1
@<TRIPOS>MOLECULE
../data/bude_mols_rdkit_confs2/molecule_64.pdb
 40 43 0 0 0
SMALL
GASTEIGER

@<TRIPOS>ATOM
      1  O1         4.1590   -2.2880   -0.6230 O.2     1  UNL1       -0.2666
      2  C1         3.2540   -1.4740   -0.2200 C.2     1  UNL1        0.2652
      3  C2         1.9150   -1.6040   -0.7430 C.ar    1  UNL1        0.0752
      4  C3         1.2140   -0.4950   -1.1260 C.ar    1  UNL1       -0.0431
      5  C4        -0.0830   -0.6780   -1.6080 C.ar    1  UNL1       -0.0406
      6  C5        -0.8810    0.5140   -2.0380 C.3     1  UNL1        0.0171
      7  C6        -1.3210    1.1780   -0.8030 C.ar    1  UNL1        0.0736
      8  N1        -0.5240    2.1470   -0.2640 N.ar    1  UNL1       -0.1750
      9  N2        -0.7920    2.7480    0.8780 N.ar    1  UNL1       -0.2425
     10  C7        -1.8890    2.4300    1.5870 C.ar    1  UNL1        0.2725
     11  O2        -2.1460    3.0110    2.6890 O.2     1  UNL1       -0.2658
     12  C8        -2.7590    1.4570    1.1170 C.ar    1  UNL1        0.0496
     13  C9        -3.9050    1.1120    1.7960 C.ar    1  UNL1       -0.0487
     14  C10       -4.7630    0.1490    1.2790 C.ar    1  UNL1       -0.0610
     15  C11       -4.4770   -0.4710    0.0820 C.ar    1  UNL1       -0.0611
     16  C12       -3.3100   -0.0900   -0.5650 C.ar    1  UNL1       -0.0521
     17  C13       -2.4360    0.8450   -0.1030 C.ar    1  UNL1        0.0106
     18  C14       -0.6170   -1.9250   -1.6890 C.ar    1  UNL1       -0.0555
     19  C15        0.1050   -3.0670   -1.2950 C.ar    1  UNL1       -0.0254
     20  C16        1.3660   -2.8790   -0.8260 C.ar    1  UNL1        0.1357
     21  F1         2.0600   -3.9900   -0.4430 F       1  UNL1       -0.2047
     22  N3         3.6120   -0.4870    0.7180 N.ar    1  UNL1       -0.2903
     23  C17        2.8110    0.4310    1.2680 C.ar    1  UNL1        0.0127
     24  C18        3.5920    1.2280    2.1200 C.ar    1  UNL1       -0.0437
     25  C19        4.8730    0.7380    2.0450 C.ar    1  UNL1       -0.0437
     26  C20        4.8910   -0.3170    1.1830 C.ar    1  UNL1        0.0127
     27 H           1.6302    0.4471   -1.0609 H       1  UNL1        0.0629
     28 H          -1.7274    0.2055   -2.6154 H       1  UNL1        0.0377
     29 H          -0.3006    1.1724   -2.6500 H       1  UNL1        0.0377
     30 H          -0.1795    3.4403    1.2169 H       1  UNL1        0.1921
     31 H          -4.1283    1.5705    2.6932 H       1  UNL1        0.0625
     32 H          -5.6203   -0.1036    1.7950 H       1  UNL1        0.0618
     33 H          -5.1037   -1.1878   -0.3161 H       1  UNL1        0.0618
     34 H          -3.0888   -0.5494   -1.4622 H       1  UNL1        0.0624
     35 H          -1.5776   -2.0376   -2.0490 H       1  UNL1        0.0621
     36 H          -0.3076   -4.0107   -1.3599 H       1  UNL1        0.0646
     37 H           1.7987    0.5353    1.0968 H       1  UNL1        0.0814
     38 H           3.2677    2.0247    2.6901 H       1  UNL1        0.0633
     39 H           5.6885    1.1084    2.5577 H       1  UNL1        0.0633
     40 H           5.7148   -0.8835    0.9272 H       1  UNL1        0.0814
@<TRIPOS>BOND
     1     1     2    2
     2     2     3    1
     3     2    22   am
     4     3     4   ar
     5     3    20   ar
     6     4     5   ar
     7     5     6    1
     8     5    18   ar
     9     6     7    1
    10     7     8   ar
    11     7    17   ar
    12     8     9   ar
    13     9    10   ar
    14    10    11    2
    15    10    12   ar
    16    12    13   ar
    17    12    17   ar
    18    13    14   ar
    19    14    15   ar
    20    15    16   ar
    21    16    17   ar
    22    18    19   ar
    23    19    20   ar
    24    20    21    1
    25    22    23   ar
    26    22    26   ar
    27    23    24   ar
    28    24    25   ar
    29    25    26   ar
    30     4    27    1
    31     6    28    1
    32     6    29    1
    33     9    30    1
    34    13    31    1
    35    14    32    1
    36    15    33    1
    37    16    34    1
    38    18    35    1
    39    19    36    1
    40    23    37    1
    41    24    38    1
    42    25    39    1
    43    26    40    1
@<TRIPOS>MOLECULE
../data/bude_mols_rdkit_confs2/molecule_64.pdb
 40 43 0 0 0
SMALL
GASTEIGER

@<TRIPOS>ATOM
      1  O1         3.3970    2.1190    1.2010 O.2     1  UNL1       -0.2666
      2  C1         3.1830    1.0520    0.5240 C.2     1  UNL1        0.2652
      3  C2         2.0690    1.0800   -0.4180 C.ar    1  UNL1        0.0752
      4  C3         0.8460    1.4800    0.0280 C.ar    1  UNL1       -0.0431
      5  C4        -0.2680    1.5610   -0.8210 C.ar    1  UNL1       -0.0406
      6  C5        -1.5520    2.0300   -0.2600 C.3     1  UNL1        0.0171
      7  C6        -2.2220    1.1040    0.6490 C.ar    1  UNL1        0.0736
      8  N1        -2.0600    1.2590    2.0040 N.ar    1  UNL1       -0.1750
      9  N2        -2.6040    0.4390    2.8820 N.ar    1  UNL1       -0.2425
     10  C7        -3.3600   -0.6120    2.5260 C.ar    1  UNL1        0.2725
     11  O2        -3.8570   -1.3670    3.4300 O.2     1  UNL1       -0.2658
     12  C8        -3.5680   -0.8320    1.1830 C.ar    1  UNL1        0.0496
     13  C9        -4.3520   -1.9040    0.8120 C.ar    1  UNL1       -0.0487
     14  C10       -4.5700   -2.1160   -0.5390 C.ar    1  UNL1       -0.0610
     15  C11       -4.0100   -1.2650   -1.4860 C.ar    1  UNL1       -0.0611
     16  C12       -3.2240   -0.1940   -1.0720 C.ar    1  UNL1       -0.0521
     17  C13       -2.9880    0.0410    0.2510 C.ar    1  UNL1        0.0106
     18  C14       -0.0650    1.2140   -2.1300 C.ar    1  UNL1       -0.0555
     19  C15        1.1780    0.8020   -2.6080 C.ar    1  UNL1       -0.0254
     20  C16        2.2620    0.7350   -1.7350 C.ar    1  UNL1        0.1357
     21  F1         3.4780    0.3710   -2.1610 F       1  UNL1       -0.2047
     22  N3         4.0320   -0.0430    0.7460 N.ar    1  UNL1       -0.2903
     23  C17        5.0650   -0.0220    1.6050 C.ar    1  UNL1        0.0127
     24  C18        5.6770   -1.2520    1.6170 C.ar    1  UNL1       -0.0437
     25  C19        4.9700   -2.0230    0.7260 C.ar    1  UNL1       -0.0437
     26  C20        3.9550   -1.2610    0.1960 C.ar    1  UNL1        0.0127
     27 H           0.7351    1.7317    1.0227 H       1  UNL1        0.0629
     28 H          -2.2151    2.2268   -1.0764 H       1  UNL1        0.0377
     29 H          -1.3162    2.8940    0.3255 H       1  UNL1        0.0377
     30 H          -2.4491    0.6047    3.8400 H       1  UNL1        0.1921
     31 H          -4.7645   -2.5304    1.5209 H       1  UNL1        0.0625
     32 H          -5.1522   -2.9111   -0.8454 H       1  UNL1        0.0618
     33 H          -4.1767   -1.4272   -2.4914 H       1  UNL1        0.0618
     34 H          -2.8118    0.4345   -1.7792 H       1  UNL1        0.0624
     35 H          -0.8604    1.2591   -2.7859 H       1  UNL1        0.0621
     36 H           1.2946    0.5484   -3.6015 H       1  UNL1        0.0646
     37 H           5.3541    0.7925    2.1689 H       1  UNL1        0.0814
     38 H           6.4955   -1.5369    2.1773 H       1  UNL1        0.0633
     39 H           5.1675   -3.0089    0.4934 H       1  UNL1        0.0633
     40 H           3.2595   -1.5721   -0.5001 H       1  UNL1        0.0814
@<TRIPOS>BOND
     1     1     2    2
     2     2     3    1
     3     2    22   am
     4     3     4   ar
     5     3    20   ar
     6     4     5   ar
     7     5     6    1
     8     5    18   ar
     9     6     7    1
    10     7     8   ar
    11     7    17   ar
    12     8     9   ar
    13     9    10   ar
    14    10    11    2
    15    10    12   ar
    16    12    13   ar
    17    12    17   ar
    18    13    14   ar
    19    14    15   ar
    20    15    16   ar
    21    16    17   ar
    22    18    19   ar
    23    19    20   ar
    24    20    21    1
    25    22    23   ar
    26    22    26   ar
    27    23    24   ar
    28    24    25   ar
    29    25    26   ar
    30     4    27    1
    31     6    28    1
    32     6    29    1
    33     9    30    1
    34    13    31    1
    35    14    32    1
    36    15    33    1
    37    16    34    1
    38    18    35    1
    39    19    36    1
    40    23    37    1
    41    24    38    1
    42    25    39    1
    43    26    40    1
@<TRIPOS>MOLECULE
../data/bude_mols_rdkit_confs2/molecule_64.pdb
 40 43 0 0 0
SMALL
GASTEIGER

@<TRIPOS>ATOM
      1  O1         3.6280   -2.1170   -1.0320 O.2     1  UNL1       -0.2666
      2  C1         3.3990   -0.9250   -0.5770 C.2     1  UNL1        0.2652
      3  C2         2.2020   -0.3080   -1.0770 C.ar    1  UNL1        0.0752
      4  C3         1.0040   -1.0250   -1.0690 C.ar    1  UNL1       -0.0431
      5  C4        -0.1860   -0.5210   -1.5820 C.ar    1  UNL1       -0.0406
      6  C5        -1.4260   -1.3760   -1.5210 C.3     1  UNL1        0.0171
      7  C6        -2.2180   -1.1490   -0.3070 C.ar    1  UNL1        0.0736
      8  N1        -1.9570   -1.8580    0.8360 N.ar    1  UNL1       -0.1750
      9  N2        -2.5820   -1.6420    1.9730 N.ar    1  UNL1       -0.2425
     10  C7        -3.5350   -0.7110    2.1230 C.ar    1  UNL1        0.2725
     11  O2        -4.1330   -0.5010    3.2000 O.2     1  UNL1       -0.2658
     12  C8        -3.8550    0.0470    0.9980 C.ar    1  UNL1        0.0496
     13  C9        -4.8610    0.9940    1.1530 C.ar    1  UNL1       -0.0487
     14  C10       -5.2030    1.7300    0.0400 C.ar    1  UNL1       -0.0610
     15  C11       -4.5560    1.5090   -1.1520 C.ar    1  UNL1       -0.0611
     16  C12       -3.5490    0.5540   -1.2810 C.ar    1  UNL1       -0.0521
     17  C13       -3.1930   -0.1910   -0.1770 C.ar    1  UNL1        0.0106
     18  C14       -0.1310    0.7330   -2.1070 C.ar    1  UNL1       -0.0555
     19  C15        1.0430    1.4780   -2.1340 C.ar    1  UNL1       -0.0254
     20  C16        2.2010    0.9570   -1.6210 C.ar    1  UNL1        0.1357
     21  F1         3.3720    1.6910   -1.6710 F       1  UNL1       -0.2047
     22  N3         4.3080   -0.3890    0.3160 N.ar    1  UNL1       -0.2903
     23  C17        4.3450    0.7900    0.9790 C.ar    1  UNL1        0.0127
     24  C18        5.4840    0.8970    1.7470 C.ar    1  UNL1       -0.0437
     25  C19        6.1930   -0.2490    1.5660 C.ar    1  UNL1       -0.0437
     26  C20        5.4670   -1.0170    0.6970 C.ar    1  UNL1        0.0127
     27 H           1.0016   -1.9739   -0.6632 H       1  UNL1        0.0629
     28 H          -1.1330   -2.4047   -1.5499 H       1  UNL1        0.0377
     29 H          -2.0388   -1.1124   -2.3576 H       1  UNL1        0.0377
     30 H          -2.3379   -2.1913    2.7527 H       1  UNL1        0.1921
     31 H          -5.3302    1.1390    2.0607 H       1  UNL1        0.0625
     32 H          -5.9437    2.4460    0.1012 H       1  UNL1        0.0618
     33 H          -4.8240    2.0675   -1.9774 H       1  UNL1        0.0618
     34 H          -3.0780    0.4071   -2.1874 H       1  UNL1        0.0624
     35 H          -0.9915    1.1462   -2.4993 H       1  UNL1        0.0621
     36 H           1.0416    2.4260   -2.5417 H       1  UNL1        0.0646
     37 H           3.6140    1.5159    0.9174 H       1  UNL1        0.0814
     38 H           5.7486    1.6950    2.3456 H       1  UNL1        0.0633
     39 H           7.0984   -0.4913    1.9980 H       1  UNL1        0.0633
     40 H           5.7552   -1.9521    0.3690 H       1  UNL1        0.0814
@<TRIPOS>BOND
     1     1     2    2
     2     2     3    1
     3     2    22   am
     4     3     4   ar
     5     3    20   ar
     6     4     5   ar
     7     5     6    1
     8     5    18   ar
     9     6     7    1
    10     7     8   ar
    11     7    17   ar
    12     8     9   ar
    13     9    10   ar
    14    10    11    2
    15    10    12   ar
    16    12    13   ar
    17    12    17   ar
    18    13    14   ar
    19    14    15   ar
    20    15    16   ar
    21    16    17   ar
    22    18    19   ar
    23    19    20   ar
    24    20    21    1
    25    22    23   ar
    26    22    26   ar
    27    23    24   ar
    28    24    25   ar
    29    25    26   ar
    30     4    27    1
    31     6    28    1
    32     6    29    1
    33     9    30    1
    34    13    31    1
    35    14    32    1
    36    15    33    1
    37    16    34    1
    38    18    35    1
    39    19    36    1
    40    23    37    1
    41    24    38    1
    42    25    39    1
    43    26    40    1
