@<TRIPOS>MOLECULE
../data/bude_mols_rdkit_confs2/molecule_59.pdb
 34 36 0 0 0
SMALL
GASTEIGER

@<TRIPOS>ATOM
      1  N1         3.9570    2.3230   -0.2030 N.2     1  UNL1       -0.2466
      2  S1         5.2110    1.4300    0.1410 S.3     1  UNL1        0.0680
      3  O1         4.7320   -0.2010    0.3880 O.3     1  UNL1       -0.4186
      4  C1         3.5000   -0.7020   -0.0720 C.ar    1  UNL1        0.1393
      5  C2         3.3550   -1.2980   -1.2950 C.ar    1  UNL1       -0.0184
      6  C3         2.1330   -1.7710   -1.6890 C.ar    1  UNL1       -0.0580
      7  C4         1.0220   -1.6470   -0.8390 C.ar    1  UNL1       -0.0580
      8  C5         1.1190   -1.0590    0.3920 C.ar    1  UNL1       -0.0380
      9  C6        -0.0030   -0.9200    1.3510 C.3     1  UNL1        0.0172
     10  C7        -0.9920    0.0910    1.0730 C.ar    1  UNL1        0.0736
     11  N2        -0.7460    1.3540    1.5310 N.ar    1  UNL1       -0.1750
     12  N3        -1.5410    2.3750    1.2840 N.ar    1  UNL1       -0.2425
     13  C8        -2.6660    2.2680    0.5600 C.ar    1  UNL1        0.2725
     14  O2        -3.4170    3.2640    0.3310 O.2     1  UNL1       -0.2658
     15  C9        -2.9950    1.0170    0.0560 C.ar    1  UNL1        0.0496
     16  C10       -4.1520    0.8190   -0.6760 C.ar    1  UNL1       -0.0487
     17  C11       -4.4520   -0.4550   -1.1320 C.ar    1  UNL1       -0.0610
     18  C12       -3.6000   -1.5110   -0.8570 C.ar    1  UNL1       -0.0611
     19  C13       -2.4510   -1.3040   -0.1290 C.ar    1  UNL1       -0.0521
     20  C14       -2.1530   -0.0510    0.3210 C.ar    1  UNL1        0.0106
     21  C15        2.3980   -0.5970    0.7310 C.ar    1  UNL1       -0.0149
     22 H           4.0701    3.2862   -0.3722 H       1  UNL1        0.1976
     23 H           5.8001    1.9008    1.2728 H       1  UNL1        0.1591
     24 H           4.1694   -1.3910   -1.9220 H       1  UNL1        0.0654
     25 H           2.0276   -2.2196   -2.6124 H       1  UNL1        0.0619
     26 H           0.1077   -2.0093   -1.1517 H       1  UNL1        0.0620
     27 H           0.4193   -0.7009    2.3094 H       1  UNL1        0.0377
     28 H          -0.5338   -1.8468    1.2871 H       1  UNL1        0.0377
     29 H          -1.2987    3.2573    1.6473 H       1  UNL1        0.1921
     30 H          -4.7834    1.6094   -0.8799 H       1  UNL1        0.0625
     31 H          -5.3127   -0.6168   -1.6779 H       1  UNL1        0.0618
     32 H          -3.8277   -2.4575   -1.1995 H       1  UNL1        0.0618
     33 H          -1.8177   -2.0927    0.0757 H       1  UNL1        0.0624
     34 H           2.5166   -0.1457    1.6515 H       1  UNL1        0.0657
@<TRIPOS>BOND
     1     1     2    2
     2     2     3    1
     3     3     4    1
     4     4     5   ar
     5     4    21   ar
     6     5     6   ar
     7     6     7   ar
     8     7     8   ar
     9     8     9    1
    10     8    21   ar
    11     9    10    1
    12    10    11   ar
    13    10    20   ar
    14    11    12   ar
    15    12    13   ar
    16    13    14    2
    17    13    15   ar
    18    15    16   ar
    19    15    20   ar
    20    16    17   ar
    21    17    18   ar
    22    18    19   ar
    23    19    20   ar
    24     1    22    1
    25     2    23    1
    26     5    24    1
    27     6    25    1
    28     7    26    1
    29     9    27    1
    30     9    28    1
    31    12    29    1
    32    16    30    1
    33    17    31    1
    34    18    32    1
    35    19    33    1
    36    21    34    1
@<TRIPOS>MOLECULE
../data/bude_mols_rdkit_confs2/molecule_59.pdb
 34 36 0 0 0
SMALL
GASTEIGER

@<TRIPOS>ATOM
      1  N1         5.5150   -0.6260   -1.0700 N.2     1  UNL1       -0.2466
      2  S1         4.9370   -2.0350   -0.6670 S.3     1  UNL1        0.0680
      3  O1         3.5520   -1.8530    0.3420 O.3     1  UNL1       -0.4186
      4  C1         2.8340   -0.6710    0.2980 C.ar    1  UNL1        0.1393
      5  C2         3.2070    0.3500    1.1640 C.ar    1  UNL1       -0.0184
      6  C3         2.4990    1.5300    1.1270 C.ar    1  UNL1       -0.0580
      7  C4         1.4470    1.6890    0.2520 C.ar    1  UNL1       -0.0580
      8  C5         1.0510    0.6720   -0.6330 C.ar    1  UNL1       -0.0380
      9  C6        -0.0780    0.9740   -1.5450 C.3     1  UNL1        0.0172
     10  C7        -1.3610    1.0590   -0.8550 C.ar    1  UNL1        0.0736
     11  N2        -1.7690    2.3100   -0.4870 N.ar    1  UNL1       -0.1750
     12  N3        -2.8920    2.4270    0.1820 N.ar    1  UNL1       -0.2425
     13  C8        -3.6700    1.4030    0.5310 C.ar    1  UNL1        0.2725
     14  O2        -4.7330    1.5560    1.1700 O.2     1  UNL1       -0.2658
     15  C9        -3.3020    0.1220    0.1820 C.ar    1  UNL1        0.0496
     16  C10       -4.0660   -0.9750    0.5020 C.ar    1  UNL1       -0.0487
     17  C11       -3.6300   -2.2120    0.1030 C.ar    1  UNL1       -0.0610
     18  C12       -2.4480   -2.3760   -0.6090 C.ar    1  UNL1       -0.0611
     19  C13       -1.6830   -1.2790   -0.9290 C.ar    1  UNL1       -0.0521
     20  C14       -2.1070   -0.0360   -0.5340 C.ar    1  UNL1        0.0106
     21  C15        1.7670   -0.4710   -0.5710 C.ar    1  UNL1       -0.0149
     22 H           6.3102   -0.5670   -1.6474 H       1  UNL1        0.1976
     23 H           5.8908   -2.7347    0.0041 H       1  UNL1        0.1591
     24 H           3.9952    0.2266    1.8186 H       1  UNL1        0.0654
     25 H           2.7586    2.3023    1.7604 H       1  UNL1        0.0619
     26 H           0.9331    2.5840    0.2463 H       1  UNL1        0.0620
     27 H          -0.1376    0.2003   -2.2817 H       1  UNL1        0.0377
     28 H           0.1129    1.9305   -1.9850 H       1  UNL1        0.0377
     29 H          -3.1788    3.3318    0.4435 H       1  UNL1        0.1921
     30 H          -4.9465   -0.8700    1.0299 H       1  UNL1        0.0625
     31 H          -4.1946   -3.0434    0.3376 H       1  UNL1        0.0618
     32 H          -2.1448   -3.3194   -0.8971 H       1  UNL1        0.0618
     33 H          -0.8038   -1.3893   -1.4580 H       1  UNL1        0.0624
     34 H           1.5070   -1.2418   -1.2061 H       1  UNL1        0.0657
@<TRIPOS>BOND
     1     1     2    2
     2     2     3    1
     3     3     4    1
     4     4     5   ar
     5     4    21   ar
     6     5     6   ar
     7     6     7   ar
     8     7     8   ar
     9     8     9    1
    10     8    21   ar
    11     9    10    1
    12    10    11   ar
    13    10    20   ar
    14    11    12   ar
    15    12    13   ar
    16    13    14    2
    17    13    15   ar
    18    15    16   ar
    19    15    20   ar
    20    16    17   ar
    21    17    18   ar
    22    18    19   ar
    23    19    20   ar
    24     1    22    1
    25     2    23    1
    26     5    24    1
    27     6    25    1
    28     7    26    1
    29     9    27    1
    30     9    28    1
    31    12    29    1
    32    16    30    1
    33    17    31    1
    34    18    32    1
    35    19    33    1
    36    21    34    1
@<TRIPOS>MOLECULE
../data/bude_mols_rdkit_confs2/molecule_59.pdb
 34 36 0 0 0
SMALL
GASTEIGER

@<TRIPOS>ATOM
      1  N1         5.0090    3.1800   -0.2800 N.2     1  UNL1       -0.2466
      2  S1         5.0600    1.6420   -0.5550 S.3     1  UNL1        0.0680
      3  O1         3.6360    1.1120   -1.3360 O.3     1  UNL1       -0.4186
      4  C1         2.8880    0.0550   -0.7960 C.ar    1  UNL1        0.1393
      5  C2         3.1710   -1.2180   -1.1730 C.ar    1  UNL1       -0.0184
      6  C3         2.4380   -2.2450   -0.6430 C.ar    1  UNL1       -0.0580
      7  C4         1.4280   -1.9990    0.2560 C.ar    1  UNL1       -0.0580
      8  C5         1.1390   -0.6930    0.6410 C.ar    1  UNL1       -0.0380
      9  C6         0.0750   -0.4790    1.6210 C.3     1  UNL1        0.0172
     10  C7        -1.2970   -0.7490    1.1440 C.ar    1  UNL1        0.0736
     11  N2        -1.8660   -1.9610    1.4230 N.ar    1  UNL1       -0.1750
     12  N3        -3.0570   -2.3180    1.0200 N.ar    1  UNL1       -0.2425
     13  C8        -3.7940   -1.4650    0.2860 C.ar    1  UNL1        0.2725
     14  O2        -4.9390   -1.7910   -0.1090 O.2     1  UNL1       -0.2658
     15  C9        -3.3320   -0.2080   -0.0620 C.ar    1  UNL1        0.0496
     16  C10       -4.1000    0.6630   -0.8070 C.ar    1  UNL1       -0.0487
     17  C11       -3.6180    1.9130   -1.1290 C.ar    1  UNL1       -0.0610
     18  C12       -2.3560    2.2320   -0.6740 C.ar    1  UNL1       -0.0611
     19  C13       -1.5840    1.3670    0.0700 C.ar    1  UNL1       -0.0521
     20  C14       -2.0550    0.1150    0.3960 C.ar    1  UNL1        0.0106
     21  C15        1.8810    0.3220    0.1030 C.ar    1  UNL1       -0.0149
     22 H           5.7649    3.6255    0.1665 H       1  UNL1        0.1976
     23 H           5.1903    0.9829    0.6275 H       1  UNL1        0.1591
     24 H           3.9273   -1.4084   -1.8489 H       1  UNL1        0.0654
     25 H           2.6463   -3.2165   -0.9219 H       1  UNL1        0.0619
     26 H           0.8831   -2.7837    0.6462 H       1  UNL1        0.0620
     27 H           0.1187    0.5425    1.9363 H       1  UNL1        0.0377
     28 H           0.2552   -1.1828    2.4066 H       1  UNL1        0.0377
     29 H          -3.4127   -3.2061    1.2523 H       1  UNL1        0.1921
     30 H          -5.0394    0.3771   -1.1244 H       1  UNL1        0.0625
     31 H          -4.1758    2.5798   -1.6851 H       1  UNL1        0.0618
     32 H          -1.9718    3.1624   -0.9015 H       1  UNL1        0.0618
     33 H          -0.6459    1.6595    0.3853 H       1  UNL1        0.0624
     34 H           1.6837    1.2981    0.3740 H       1  UNL1        0.0657
@<TRIPOS>BOND
     1     1     2    2
     2     2     3    1
     3     3     4    1
     4     4     5   ar
     5     4    21   ar
     6     5     6   ar
     7     6     7   ar
     8     7     8   ar
     9     8     9    1
    10     8    21   ar
    11     9    10    1
    12    10    11   ar
    13    10    20   ar
    14    11    12   ar
    15    12    13   ar
    16    13    14    2
    17    13    15   ar
    18    15    16   ar
    19    15    20   ar
    20    16    17   ar
    21    17    18   ar
    22    18    19   ar
    23    19    20   ar
    24     1    22    1
    25     2    23    1
    26     5    24    1
    27     6    25    1
    28     7    26    1
    29     9    27    1
    30     9    28    1
    31    12    29    1
    32    16    30    1
    33    17    31    1
    34    18    32    1
    35    19    33    1
    36    21    34    1
@<TRIPOS>MOLECULE
../data/bude_mols_rdkit_confs2/molecule_59.pdb
 34 36 0 0 0
SMALL
GASTEIGER

@<TRIPOS>ATOM
      1  N1         5.1660    1.6120   -1.0290 N.2     1  UNL1       -0.2466
      2  S1         5.4570    0.3580   -1.9010 S.3     1  UNL1        0.0680
      3  O1         4.2330   -0.8390   -1.7930 O.3     1  UNL1       -0.4186
      4  C1         3.3870   -0.8490   -0.6860 C.ar    1  UNL1        0.1393
      5  C2         3.7110   -1.5750    0.4490 C.ar    1  UNL1       -0.0184
      6  C3         2.8860   -1.5950    1.5510 C.ar    1  UNL1       -0.0580
      7  C4         1.7140   -0.8710    1.5040 C.ar    1  UNL1       -0.0580
      8  C5         1.3430   -0.1330    0.4000 C.ar    1  UNL1       -0.0380
      9  C6         0.0830    0.6110    0.4240 C.3     1  UNL1        0.0172
     10  C7        -1.0700   -0.1620   -0.0700 C.ar    1  UNL1        0.0736
     11  N2        -1.0210   -1.4220   -0.5050 N.ar    1  UNL1       -0.1750
     12  N3        -2.1040   -2.0660   -0.9390 N.ar    1  UNL1       -0.2425
     13  C8        -3.3230   -1.4940   -0.9700 C.ar    1  UNL1        0.2725
     14  O2        -4.3360   -2.1220   -1.3850 O.2     1  UNL1       -0.2658
     15  C9        -3.4390   -0.1970   -0.5340 C.ar    1  UNL1        0.0496
     16  C10       -4.6610    0.4370   -0.5420 C.ar    1  UNL1       -0.0487
     17  C11       -4.8070    1.7380   -0.1100 C.ar    1  UNL1       -0.0610
     18  C12       -3.6980    2.4050    0.3370 C.ar    1  UNL1       -0.0611
     19  C13       -2.4710    1.7770    0.3490 C.ar    1  UNL1       -0.0521
     20  C14       -2.3010    0.4650   -0.0820 C.ar    1  UNL1        0.0106
     21  C15        2.1940   -0.1370   -0.6820 C.ar    1  UNL1       -0.0149
     22 H           5.8041    2.3616   -1.0163 H       1  UNL1        0.1976
     23 H           6.6335   -0.1887   -1.4929 H       1  UNL1        0.1591
     24 H           4.5913   -2.1133    0.4687 H       1  UNL1        0.0654
     25 H           3.1387   -2.1384    2.3912 H       1  UNL1        0.0619
     26 H           1.0906   -0.8817    2.3263 H       1  UNL1        0.0620
     27 H           0.1931    1.4819   -0.1878 H       1  UNL1        0.0377
     28 H          -0.1178    0.8536    1.4466 H       1  UNL1        0.0377
     29 H          -2.0094   -2.9957   -1.2489 H       1  UNL1        0.1921
     30 H          -5.4903   -0.0756   -0.8806 H       1  UNL1        0.0625
     31 H          -5.7305    2.1984   -0.1232 H       1  UNL1        0.0618
     32 H          -3.7809    3.3798    0.6656 H       1  UNL1        0.0618
     33 H          -1.6486    2.2989    0.6900 H       1  UNL1        0.0624
     34 H           1.9368    0.4081   -1.5197 H       1  UNL1        0.0657
@<TRIPOS>BOND
     1     1     2    2
     2     2     3    1
     3     3     4    1
     4     4     5   ar
     5     4    21   ar
     6     5     6   ar
     7     6     7   ar
     8     7     8   ar
     9     8     9    1
    10     8    21   ar
    11     9    10    1
    12    10    11   ar
    13    10    20   ar
    14    11    12   ar
    15    12    13   ar
    16    13    14    2
    17    13    15   ar
    18    15    16   ar
    19    15    20   ar
    20    16    17   ar
    21    17    18   ar
    22    18    19   ar
    23    19    20   ar
    24     1    22    1
    25     2    23    1
    26     5    24    1
    27     6    25    1
    28     7    26    1
    29     9    27    1
    30     9    28    1
    31    12    29    1
    32    16    30    1
    33    17    31    1
    34    18    32    1
    35    19    33    1
    36    21    34    1
@<TRIPOS>MOLECULE
../data/bude_mols_rdkit_confs2/molecule_59.pdb
 34 36 0 0 0
SMALL
GASTEIGER

@<TRIPOS>ATOM
      1  N1         5.2540    2.4710    0.9730 N.2     1  UNL1       -0.2466
      2  S1         4.0990    1.4050    1.1420 S.3     1  UNL1        0.0680
      3  O1         4.1540    0.2420   -0.1300 O.3     1  UNL1       -0.4186
      4  C1         3.1190   -0.6850   -0.2140 C.ar    1  UNL1        0.1393
      5  C2         3.2500   -1.8720    0.4600 C.ar    1  UNL1       -0.0184
      6  C3         2.2060   -2.7690    0.3550 C.ar    1  UNL1       -0.0580
      7  C4         1.0820   -2.5080   -0.3820 C.ar    1  UNL1       -0.0580
      8  C5         0.9320   -1.3120   -1.0700 C.ar    1  UNL1       -0.0380
      9  C6        -0.2390   -1.0190   -1.8890 C.3     1  UNL1        0.0172
     10  C7        -1.5040   -0.8240   -1.2010 C.ar    1  UNL1        0.0736
     11  N2        -2.3840   -1.8660   -1.0650 N.ar    1  UNL1       -0.1750
     12  N3        -3.5210   -1.7710   -0.4170 N.ar    1  UNL1       -0.2425
     13  C8        -3.9020   -0.6330    0.1620 C.ar    1  UNL1        0.2725
     14  O2        -4.9870   -0.5090    0.7920 O.2     1  UNL1       -0.2658
     15  C9        -3.0840    0.4780    0.0820 C.ar    1  UNL1        0.0496
     16  C10       -3.4500    1.6810    0.6580 C.ar    1  UNL1       -0.0487
     17  C11       -2.6320    2.7930    0.5600 C.ar    1  UNL1       -0.0610
     18  C12       -1.4410    2.6810   -0.1250 C.ar    1  UNL1       -0.0611
     19  C13       -1.0830    1.4790   -0.6970 C.ar    1  UNL1       -0.0521
     20  C14       -1.8700    0.3570   -0.6170 C.ar    1  UNL1        0.0106
     21  C15        1.9640   -0.4210   -0.9690 C.ar    1  UNL1       -0.0149
     22 H           5.3498    3.2008    1.6268 H       1  UNL1        0.1976
     23 H           2.8970    2.0406    1.1145 H       1  UNL1        0.1591
     24 H           4.0903   -2.0849    1.0199 H       1  UNL1        0.0654
     25 H           2.2754   -3.6712    0.8512 H       1  UNL1        0.0619
     26 H           0.3313   -3.2147   -0.4268 H       1  UNL1        0.0620
     27 H          -0.3664   -1.8342   -2.5702 H       1  UNL1        0.0377
     28 H          -0.0259   -0.0739   -2.3432 H       1  UNL1        0.0377
     29 H          -4.1069   -2.5599   -0.3571 H       1  UNL1        0.1921
     30 H          -4.3448    1.7503    1.1675 H       1  UNL1        0.0625
     31 H          -2.9083    3.6888    0.9914 H       1  UNL1        0.0618
     32 H          -0.8165    3.4982   -0.2097 H       1  UNL1        0.0618
     33 H          -0.1872    1.4202   -1.2059 H       1  UNL1        0.0624
     34 H           1.8918    0.4803   -1.4665 H       1  UNL1        0.0657
@<TRIPOS>BOND
     1     1     2    2
     2     2     3    1
     3     3     4    1
     4     4     5   ar
     5     4    21   ar
     6     5     6   ar
     7     6     7   ar
     8     7     8   ar
     9     8     9    1
    10     8    21   ar
    11     9    10    1
    12    10    11   ar
    13    10    20   ar
    14    11    12   ar
    15    12    13   ar
    16    13    14    2
    17    13    15   ar
    18    15    16   ar
    19    15    20   ar
    20    16    17   ar
    21    17    18   ar
    22    18    19   ar
    23    19    20   ar
    24     1    22    1
    25     2    23    1
    26     5    24    1
    27     6    25    1
    28     7    26    1
    29     9    27    1
    30     9    28    1
    31    12    29    1
    32    16    30    1
    33    17    31    1
    34    18    32    1
    35    19    33    1
    36    21    34    1
@<TRIPOS>MOLECULE
../data/bude_mols_rdkit_confs2/molecule_59.pdb
 34 36 0 0 0
SMALL
GASTEIGER

@<TRIPOS>ATOM
      1  N1         5.1620    1.3900   -0.5870 N.2     1  UNL1       -0.2466
      2  S1         4.9210    0.6180   -1.9330 S.3     1  UNL1        0.0680
      3  O1         4.2390   -0.9350   -1.6850 O.3     1  UNL1       -0.4186
      4  C1         3.3360   -1.2240   -0.6800 C.ar    1  UNL1        0.1393
      5  C2         3.7360   -1.6510    0.5710 C.ar    1  UNL1       -0.0184
      6  C3         2.8170   -1.9400    1.5770 C.ar    1  UNL1       -0.0580
      7  C4         1.4710   -1.7940    1.3110 C.ar    1  UNL1       -0.0580
      8  C5         1.0420   -1.3680    0.0700 C.ar    1  UNL1       -0.0380
      9  C6        -0.4140   -1.2310   -0.1500 C.3     1  UNL1        0.0172
     10  C7        -0.9050    0.1290    0.1960 C.ar    1  UNL1        0.0736
     11  N2        -0.1220    1.1030    0.6490 N.ar    1  UNL1       -0.1750
     12  N3        -0.6500    2.2730    0.9280 N.ar    1  UNL1       -0.2425
     13  C8        -1.9540    2.5650    0.7850 C.ar    1  UNL1        0.2725
     14  O2        -2.4490    3.6880    1.0550 O.2     1  UNL1       -0.2658
     15  C9        -2.8170    1.5700    0.3110 C.ar    1  UNL1        0.0496
     16  C10       -4.1620    1.8130    0.1460 C.ar    1  UNL1       -0.0487
     17  C11       -4.9910    0.8060   -0.3260 C.ar    1  UNL1       -0.0610
     18  C12       -4.4440   -0.4250   -0.6200 C.ar    1  UNL1       -0.0611
     19  C13       -3.0960   -0.6510   -0.4490 C.ar    1  UNL1       -0.0521
     20  C14       -2.2440    0.3520    0.0260 C.ar    1  UNL1        0.0106
     21  C15        1.9780   -1.0920   -0.9000 C.ar    1  UNL1       -0.0149
     22 H           5.5505    2.2945   -0.6011 H       1  UNL1        0.1976
     23 H           6.1124    0.4742   -2.5729 H       1  UNL1        0.1591
     24 H           4.7437   -1.7589    0.7658 H       1  UNL1        0.0654
     25 H           3.1373   -2.2578    2.5052 H       1  UNL1        0.0619
     26 H           0.7786   -2.0052    2.0466 H       1  UNL1        0.0620
     27 H          -0.9242   -1.9476    0.4592 H       1  UNL1        0.0377
     28 H          -0.6079   -1.3975   -1.1890 H       1  UNL1        0.0377
     29 H          -0.0529    2.9805    1.2629 H       1  UNL1        0.1921
     30 H          -4.5521    2.7411    0.3727 H       1  UNL1        0.0625
     31 H          -6.0008    0.9754   -0.4550 H       1  UNL1        0.0618
     32 H          -5.0495   -1.1834   -0.9711 H       1  UNL1        0.0618
     33 H          -2.7065   -1.5793   -0.6759 H       1  UNL1        0.0624
     34 H           1.6537   -0.7744   -1.8268 H       1  UNL1        0.0657
@<TRIPOS>BOND
     1     1     2    2
     2     2     3    1
     3     3     4    1
     4     4     5   ar
     5     4    21   ar
     6     5     6   ar
     7     6     7   ar
     8     7     8   ar
     9     8     9    1
    10     8    21   ar
    11     9    10    1
    12    10    11   ar
    13    10    20   ar
    14    11    12   ar
    15    12    13   ar
    16    13    14    2
    17    13    15   ar
    18    15    16   ar
    19    15    20   ar
    20    16    17   ar
    21    17    18   ar
    22    18    19   ar
    23    19    20   ar
    24     1    22    1
    25     2    23    1
    26     5    24    1
    27     6    25    1
    28     7    26    1
    29     9    27    1
    30     9    28    1
    31    12    29    1
    32    16    30    1
    33    17    31    1
    34    18    32    1
    35    19    33    1
    36    21    34    1
@<TRIPOS>MOLECULE
../data/bude_mols_rdkit_confs2/molecule_59.pdb
 34 36 0 0 0
SMALL
GASTEIGER

@<TRIPOS>ATOM
      1  N1         3.1720   -1.0370    2.5810 N.2     1  UNL1       -0.2466
      2  S1         3.9800   -0.2170    1.4850 S.3     1  UNL1        0.0680
      3  O1         3.8060   -1.0490   -0.0260 O.3     1  UNL1       -0.4186
      4  C1         2.9140   -0.4930   -0.9560 C.ar    1  UNL1        0.1393
      5  C2         3.3010    0.4360   -1.8750 C.ar    1  UNL1       -0.0184
      6  C3         2.4040    0.9700   -2.7780 C.ar    1  UNL1       -0.0580
      7  C4         1.1230    0.5350   -2.7160 C.ar    1  UNL1       -0.0580
      8  C5         0.6520   -0.4230   -1.7930 C.ar    1  UNL1       -0.0380
      9  C6        -0.8000   -0.8060   -1.8460 C.3     1  UNL1        0.0172
     10  C7        -1.6130    0.0550   -1.0090 C.ar    1  UNL1        0.0736
     11  N2        -2.1480    1.1780   -1.5860 N.ar    1  UNL1       -0.1750
     12  N3        -2.8490    2.0690   -0.9050 N.ar    1  UNL1       -0.2425
     13  C8        -3.1020    1.9620    0.4000 C.ar    1  UNL1        0.2725
     14  O2        -3.7540    2.7830    1.0560 O.2     1  UNL1       -0.2658
     15  C9        -2.5980    0.8470    1.0760 C.ar    1  UNL1        0.0496
     16  C10       -2.8330    0.6550    2.4200 C.ar    1  UNL1       -0.0487
     17  C11       -2.3390   -0.4710    3.0640 C.ar    1  UNL1       -0.0610
     18  C12       -1.6150   -1.3880    2.3380 C.ar    1  UNL1       -0.0611
     19  C13       -1.3860   -1.1810    0.9820 C.ar    1  UNL1       -0.0521
     20  C14       -1.8680   -0.0680    0.3340 C.ar    1  UNL1        0.0106
     21  C15        1.5790   -0.9090   -0.9360 C.ar    1  UNL1       -0.0149
     22 H           3.1490   -0.7222    3.5135 H       1  UNL1        0.1976
     23 H           5.2939   -0.1518    1.8299 H       1  UNL1        0.1591
     24 H           4.2849    0.7466   -1.8962 H       1  UNL1        0.0654
     25 H           2.6981    1.6735   -3.4734 H       1  UNL1        0.0619
     26 H           0.4467    0.9301   -3.3880 H       1  UNL1        0.0620
     27 H          -0.9046   -1.8162   -1.5091 H       1  UNL1        0.0377
     28 H          -1.1356   -0.7020   -2.8567 H       1  UNL1        0.0377
     29 H          -3.2023    2.8518   -1.3863 H       1  UNL1        0.1921
     30 H          -3.3790    1.3518    2.9505 H       1  UNL1        0.0625
     31 H          -2.5120   -0.6178    4.0708 H       1  UNL1        0.0618
     32 H          -1.2410   -2.2313    2.8005 H       1  UNL1        0.0618
     33 H          -0.8421   -1.8783    0.4501 H       1  UNL1        0.0624
     34 H           1.2897   -1.6143   -0.2403 H       1  UNL1        0.0657
@<TRIPOS>BOND
     1     1     2    2
     2     2     3    1
     3     3     4    1
     4     4     5   ar
     5     4    21   ar
     6     5     6   ar
     7     6     7   ar
     8     7     8   ar
     9     8     9    1
    10     8    21   ar
    11     9    10    1
    12    10    11   ar
    13    10    20   ar
    14    11    12   ar
    15    12    13   ar
    16    13    14    2
    17    13    15   ar
    18    15    16   ar
    19    15    20   ar
    20    16    17   ar
    21    17    18   ar
    22    18    19   ar
    23    19    20   ar
    24     1    22    1
    25     2    23    1
    26     5    24    1
    27     6    25    1
    28     7    26    1
    29     9    27    1
    30     9    28    1
    31    12    29    1
    32    16    30    1
    33    17    31    1
    34    18    32    1
    35    19    33    1
    36    21    34    1
@<TRIPOS>MOLECULE
../data/bude_mols_rdkit_confs2/molecule_59.pdb
 34 36 0 0 0
SMALL
GASTEIGER

@<TRIPOS>ATOM
      1  N1         3.5820    2.3320    0.5580 N.2     1  UNL1       -0.2466
      2  S1         4.4960    1.2020    1.1610 S.3     1  UNL1        0.0680
      3  O1         4.3380   -0.3040    0.3590 O.3     1  UNL1       -0.4186
      4  C1         3.2360   -0.5630   -0.4310 C.ar    1  UNL1        0.1393
      5  C2         3.2920   -0.2400   -1.7920 C.ar    1  UNL1       -0.0184
      6  C3         2.2040   -0.4960   -2.5860 C.ar    1  UNL1       -0.0580
      7  C4         1.0340   -1.0720   -2.0660 C.ar    1  UNL1       -0.0580
      8  C5         0.9660   -1.3880   -0.7530 C.ar    1  UNL1       -0.0380
      9  C6        -0.1950   -1.9890   -0.0380 C.3     1  UNL1        0.0172
     10  C7        -0.9650   -1.0640    0.7710 C.ar    1  UNL1        0.0736
     11  N2        -0.6830   -0.9620    2.1020 N.ar    1  UNL1       -0.1750
     12  N3        -1.3130   -0.1050    2.8900 N.ar    1  UNL1       -0.2425
     13  C8        -2.2710    0.7220    2.4340 C.ar    1  UNL1        0.2725
     14  O2        -2.8570    1.5360    3.2170 O.2     1  UNL1       -0.2658
     15  C9        -2.5990    0.6610    1.0880 C.ar    1  UNL1        0.0496
     16  C10       -3.5890    1.4990    0.6250 C.ar    1  UNL1       -0.0487
     17  C11       -3.9220    1.4210   -0.7250 C.ar    1  UNL1       -0.0610
     18  C12       -3.2830    0.5350   -1.5680 C.ar    1  UNL1       -0.0611
     19  C13       -2.2980   -0.2920   -1.0850 C.ar    1  UNL1       -0.0521
     20  C14       -1.9300   -0.2500    0.2540 C.ar    1  UNL1        0.0106
     21  C15        2.0760   -1.1250    0.0450 C.ar    1  UNL1       -0.0149
     22 H           3.5968    3.2366    0.9462 H       1  UNL1        0.1976
     23 H           4.1631    1.0307    2.4685 H       1  UNL1        0.1591
     24 H           4.1423    0.1858   -2.1929 H       1  UNL1        0.0654
     25 H           2.2461   -0.2597   -3.5897 H       1  UNL1        0.0619
     26 H           0.2279   -1.2538   -2.6843 H       1  UNL1        0.0620
     27 H           0.1745   -2.7619    0.6031 H       1  UNL1        0.0377
     28 H          -0.8598   -2.3462   -0.7966 H       1  UNL1        0.0377
     29 H          -1.0718   -0.0717    3.8439 H       1  UNL1        0.1921
     30 H          -4.0670    2.1611    1.2559 H       1  UNL1        0.0625
     31 H          -4.6597    2.0367   -1.1015 H       1  UNL1        0.0618
     32 H          -3.5460    0.4934   -2.5651 H       1  UNL1        0.0618
     33 H          -1.8264   -0.9514   -1.7236 H       1  UNL1        0.0624
     34 H           2.0249   -1.3649    1.0474 H       1  UNL1        0.0657
@<TRIPOS>BOND
     1     1     2    2
     2     2     3    1
     3     3     4    1
     4     4     5   ar
     5     4    21   ar
     6     5     6   ar
     7     6     7   ar
     8     7     8   ar
     9     8     9    1
    10     8    21   ar
    11     9    10    1
    12    10    11   ar
    13    10    20   ar
    14    11    12   ar
    15    12    13   ar
    16    13    14    2
    17    13    15   ar
    18    15    16   ar
    19    15    20   ar
    20    16    17   ar
    21    17    18   ar
    22    18    19   ar
    23    19    20   ar
    24     1    22    1
    25     2    23    1
    26     5    24    1
    27     6    25    1
    28     7    26    1
    29     9    27    1
    30     9    28    1
    31    12    29    1
    32    16    30    1
    33    17    31    1
    34    18    32    1
    35    19    33    1
    36    21    34    1
@<TRIPOS>MOLECULE
../data/bude_mols_rdkit_confs2/molecule_59.pdb
 34 36 0 0 0
SMALL
GASTEIGER

@<TRIPOS>ATOM
      1  N1         4.6730    2.8510   -0.3210 N.2     1  UNL1       -0.2466
      2  S1         4.4180    1.4350   -0.9720 S.3     1  UNL1        0.0680
      3  O1         4.2730    0.2230    0.2190 O.3     1  UNL1       -0.4186
      4  C1         3.1400   -0.5960    0.2610 C.ar    1  UNL1        0.1393
      5  C2         3.1540   -1.7700   -0.4830 C.ar    1  UNL1       -0.0184
      6  C3         2.0340   -2.5640   -0.4310 C.ar    1  UNL1       -0.0580
      7  C4         0.9240   -2.1960    0.3470 C.ar    1  UNL1       -0.0580
      8  C5         0.9000   -1.0480    1.0790 C.ar    1  UNL1       -0.0380
      9  C6        -0.2500   -0.5900    1.9220 C.3     1  UNL1        0.0172
     10  C7        -1.0790    0.3860    1.1770 C.ar    1  UNL1        0.0736
     11  N2        -0.7330    1.6910    1.3260 N.ar    1  UNL1       -0.1750
     12  N3        -1.3180    2.6750    0.6800 N.ar    1  UNL1       -0.2425
     13  C8        -2.3090    2.4310   -0.1800 C.ar    1  UNL1        0.2725
     14  O2        -2.8460    3.3760   -0.7800 O.2     1  UNL1       -0.2658
     15  C9        -2.7060    1.1150   -0.3730 C.ar    1  UNL1        0.0496
     16  C10       -3.7500    0.8560   -1.2530 C.ar    1  UNL1       -0.0487
     17  C11       -4.1480   -0.4500   -1.4200 C.ar    1  UNL1       -0.0610
     18  C12       -3.5160   -1.4550   -0.7240 C.ar    1  UNL1       -0.0611
     19  C13       -2.4820   -1.2010    0.1480 C.ar    1  UNL1       -0.0521
     20  C14       -2.0820    0.1040    0.3140 C.ar    1  UNL1        0.0106
     21  C15        2.0500   -0.2400    1.0210 C.ar    1  UNL1       -0.0149
     22 H           4.7766    3.6448   -0.8941 H       1  UNL1        0.1976
     23 H           5.4602    1.1295   -1.7905 H       1  UNL1        0.1591
     24 H           3.9733   -2.0348   -1.0519 H       1  UNL1        0.0654
     25 H           2.0079   -3.4430   -0.9711 H       1  UNL1        0.0619
     26 H           0.0993   -2.8162    0.3645 H       1  UNL1        0.0620
     27 H           0.1262   -0.1276    2.8106 H       1  UNL1        0.0377
     28 H          -0.8535   -1.4363    2.1757 H       1  UNL1        0.0377
     29 H          -1.0221    3.6016    0.8321 H       1  UNL1        0.1921
     30 H          -4.2135    1.6218   -1.7666 H       1  UNL1        0.0625
     31 H          -4.9199   -0.6760   -2.0667 H       1  UNL1        0.0618
     32 H          -3.8271   -2.4295   -0.8602 H       1  UNL1        0.0618
     33 H          -2.0204   -1.9675    0.6622 H       1  UNL1        0.0624
     34 H           2.0766    0.6393    1.5605 H       1  UNL1        0.0657
@<TRIPOS>BOND
     1     1     2    2
     2     2     3    1
     3     3     4    1
     4     4     5   ar
     5     4    21   ar
     6     5     6   ar
     7     6     7   ar
     8     7     8   ar
     9     8     9    1
    10     8    21   ar
    11     9    10    1
    12    10    11   ar
    13    10    20   ar
    14    11    12   ar
    15    12    13   ar
    16    13    14    2
    17    13    15   ar
    18    15    16   ar
    19    15    20   ar
    20    16    17   ar
    21    17    18   ar
    22    18    19   ar
    23    19    20   ar
    24     1    22    1
    25     2    23    1
    26     5    24    1
    27     6    25    1
    28     7    26    1
    29     9    27    1
    30     9    28    1
    31    12    29    1
    32    16    30    1
    33    17    31    1
    34    18    32    1
    35    19    33    1
    36    21    34    1
@<TRIPOS>MOLECULE
../data/bude_mols_rdkit_confs2/molecule_59.pdb
 34 36 0 0 0
SMALL
GASTEIGER

@<TRIPOS>ATOM
      1  N1         5.9040   -0.1520   -0.2130 N.2     1  UNL1       -0.2466
      2  S1         5.2690   -0.5140   -1.6100 S.3     1  UNL1        0.0680
      3  O1         3.7920   -1.4220   -1.3990 O.3     1  UNL1       -0.4186
      4  C1         2.9490   -0.9790   -0.3610 C.ar    1  UNL1        0.1393
      5  C2         3.0950   -1.4760    0.9210 C.ar    1  UNL1       -0.0184
      6  C3         2.2730   -1.0460    1.9450 C.ar    1  UNL1       -0.0580
      7  C4         1.3010   -0.1020    1.6340 C.ar    1  UNL1       -0.0580
      8  C5         1.1030    0.4240    0.4040 C.ar    1  UNL1       -0.0380
      9  C6         0.0970    1.4100   -0.0270 C.3     1  UNL1        0.0172
     10  C7        -1.0830    0.8730   -0.6850 C.ar    1  UNL1        0.0736
     11  N2        -1.1150    0.8060   -2.0390 N.ar    1  UNL1       -0.1750
     12  N3        -2.1170    0.2870   -2.7190 N.ar    1  UNL1       -0.2425
     13  C8        -3.1830   -0.2120   -2.1030 C.ar    1  UNL1        0.2725
     14  O2        -4.1130   -0.6960   -2.7810 O.2     1  UNL1       -0.2658
     15  C9        -3.2500   -0.1900   -0.7150 C.ar    1  UNL1        0.0496
     16  C10       -4.3490   -0.6850   -0.0460 C.ar    1  UNL1       -0.0487
     17  C11       -4.4080   -0.6400    1.3290 C.ar    1  UNL1       -0.0610
     18  C12       -3.3480   -0.0910    2.0170 C.ar    1  UNL1       -0.0611
     19  C13       -2.2560    0.4010    1.3400 C.ar    1  UNL1       -0.0521
     20  C14       -2.1660    0.3700   -0.0150 C.ar    1  UNL1        0.0106
     21  C15        1.9690   -0.0470   -0.6070 C.ar    1  UNL1       -0.0149
     22 H           6.7433    0.3609   -0.1719 H       1  UNL1        0.1976
     23 H           6.1543   -1.2606   -2.3230 H       1  UNL1        0.1591
     24 H           3.8271   -2.1769    1.1155 H       1  UNL1        0.0654
     25 H           2.3767   -1.4118    2.9044 H       1  UNL1        0.0619
     26 H           0.6859    0.2208    2.3972 H       1  UNL1        0.0620
     27 H           0.5718    2.0857   -0.7074 H       1  UNL1        0.0377
     28 H          -0.2587    1.8697    0.8714 H       1  UNL1        0.0377
     29 H          -2.0750    0.2686   -3.7024 H       1  UNL1        0.1921
     30 H          -5.1330   -1.0922   -0.5794 H       1  UNL1        0.0625
     31 H          -5.2289   -1.0097    1.8335 H       1  UNL1        0.0618
     32 H          -3.3733   -0.0485    3.0478 H       1  UNL1        0.0618
     33 H          -1.4773    0.8082    1.8811 H       1  UNL1        0.0624
     34 H           1.8623    0.3217   -1.5650 H       1  UNL1        0.0657
@<TRIPOS>BOND
     1     1     2    2
     2     2     3    1
     3     3     4    1
     4     4     5   ar
     5     4    21   ar
     6     5     6   ar
     7     6     7   ar
     8     7     8   ar
     9     8     9    1
    10     8    21   ar
    11     9    10    1
    12    10    11   ar
    13    10    20   ar
    14    11    12   ar
    15    12    13   ar
    16    13    14    2
    17    13    15   ar
    18    15    16   ar
    19    15    20   ar
    20    16    17   ar
    21    17    18   ar
    22    18    19   ar
    23    19    20   ar
    24     1    22    1
    25     2    23    1
    26     5    24    1
    27     6    25    1
    28     7    26    1
    29     9    27    1
    30     9    28    1
    31    12    29    1
    32    16    30    1
    33    17    31    1
    34    18    32    1
    35    19    33    1
    36    21    34    1
@<TRIPOS>MOLECULE
../data/bude_mols_rdkit_confs2/molecule_59.pdb
 34 36 0 0 0
SMALL
GASTEIGER

@<TRIPOS>ATOM
      1  N1        -3.3910    3.3610   -0.2210 N.2     1  UNL1       -0.2466
      2  S1        -3.7040    2.5960    1.1220 S.3     1  UNL1        0.0680
      3  O1        -4.1410    0.9410    0.8000 O.3     1  UNL1       -0.4186
      4  C1        -3.2570    0.2130   -0.0130 C.ar    1  UNL1        0.1393
      5  C2        -3.4040    0.1850   -1.3830 C.ar    1  UNL1       -0.0184
      6  C3        -2.5340   -0.5320   -2.1860 C.ar    1  UNL1       -0.0580
      7  C4        -1.4940   -1.2310   -1.5610 C.ar    1  UNL1       -0.0580
      8  C5        -1.3040   -1.2380   -0.2250 C.ar    1  UNL1       -0.0380
      9  C6        -0.2700   -1.8970    0.5730 C.3     1  UNL1        0.0172
     10  C7         0.7630   -1.0450    1.1540 C.ar    1  UNL1        0.0736
     11  N2         0.6770   -0.6320    2.4520 N.ar    1  UNL1       -0.1750
     12  N3         1.5560    0.1600    3.0180 N.ar    1  UNL1       -0.2425
     13  C8         2.6100    0.6160    2.3250 C.ar    1  UNL1        0.2725
     14  O2         3.4650    1.3760    2.8390 O.2     1  UNL1       -0.2658
     15  C9         2.7880    0.2570    1.0050 C.ar    1  UNL1        0.0496
     16  C10        3.8880    0.7230    0.2900 C.ar    1  UNL1       -0.0487
     17  C11        4.0360    0.3330   -1.0220 C.ar    1  UNL1       -0.0610
     18  C12        3.1210   -0.5020   -1.6260 C.ar    1  UNL1       -0.0611
     19  C13        2.0420   -0.9450   -0.8900 C.ar    1  UNL1       -0.0521
     20  C14        1.8350   -0.5870    0.4370 C.ar    1  UNL1        0.0106
     21  C15       -2.2250   -0.4890    0.5310 C.ar    1  UNL1       -0.0149
     22 H          -3.1285    4.3096   -0.1975 H       1  UNL1        0.1976
     23 H          -4.7348    3.2143    1.7582 H       1  UNL1        0.1591
     24 H          -4.1786    0.7093   -1.8191 H       1  UNL1        0.0654
     25 H          -2.6480   -0.5508   -3.2115 H       1  UNL1        0.0619
     26 H          -0.8399   -1.7678   -2.1518 H       1  UNL1        0.0620
     27 H           0.2176   -2.6113   -0.0571 H       1  UNL1        0.0377
     28 H          -0.7893   -2.3140    1.4104 H       1  UNL1        0.0377
     29 H           1.4411    0.4222    3.9600 H       1  UNL1        0.1921
     30 H           4.5784    1.3481    0.7345 H       1  UNL1        0.0625
     31 H           4.8468    0.6721   -1.5630 H       1  UNL1        0.0618
     32 H           3.2408   -0.7901   -2.6097 H       1  UNL1        0.0618
     33 H           1.3581   -1.5699   -1.3447 H       1  UNL1        0.0624
     34 H          -2.1116   -0.4708    1.5566 H       1  UNL1        0.0657
@<TRIPOS>BOND
     1     1     2    2
     2     2     3    1
     3     3     4    1
     4     4     5   ar
     5     4    21   ar
     6     5     6   ar
     7     6     7   ar
     8     7     8   ar
     9     8     9    1
    10     8    21   ar
    11     9    10    1
    12    10    11   ar
    13    10    20   ar
    14    11    12   ar
    15    12    13   ar
    16    13    14    2
    17    13    15   ar
    18    15    16   ar
    19    15    20   ar
    20    16    17   ar
    21    17    18   ar
    22    18    19   ar
    23    19    20   ar
    24     1    22    1
    25     2    23    1
    26     5    24    1
    27     6    25    1
    28     7    26    1
    29     9    27    1
    30     9    28    1
    31    12    29    1
    32    16    30    1
    33    17    31    1
    34    18    32    1
    35    19    33    1
    36    21    34    1
@<TRIPOS>MOLECULE
../data/bude_mols_rdkit_confs2/molecule_59.pdb
 34 36 0 0 0
SMALL
GASTEIGER

@<TRIPOS>ATOM
      1  N1         6.8120   -0.9710    1.1380 N.2     1  UNL1       -0.2466
      2  S1         5.3340   -1.4780    1.2510 S.3     1  UNL1        0.0680
      3  O1         4.2370   -0.1690    1.3900 O.3     1  UNL1       -0.4186
      4  C1         3.3450    0.1910    0.3890 C.ar    1  UNL1        0.1393
      5  C2         3.7820    1.1110   -0.5420 C.ar    1  UNL1       -0.0184
      6  C3         2.9070    1.4770   -1.5400 C.ar    1  UNL1       -0.0580
      7  C4         1.6310    0.9500   -1.6200 C.ar    1  UNL1       -0.0580
      8  C5         1.1820    0.0280   -0.6930 C.ar    1  UNL1       -0.0380
      9  C6        -0.1860   -0.5340   -0.7820 C.3     1  UNL1        0.0172
     10  C7        -1.1830    0.2430   -0.0480 C.ar    1  UNL1        0.0736
     11  N2        -0.8930    1.3600    0.6430 N.ar    1  UNL1       -0.1750
     12  N3        -1.8100    2.0480    1.3000 N.ar    1  UNL1       -0.2425
     13  C8        -3.1020    1.6750    1.3230 C.ar    1  UNL1        0.2725
     14  O2        -3.9780    2.3390    1.9550 O.2     1  UNL1       -0.2658
     15  C9        -3.4850    0.5450    0.6430 C.ar    1  UNL1        0.0496
     16  C10       -4.8010    0.1440    0.6520 C.ar    1  UNL1       -0.0487
     17  C11       -5.1520   -0.9930   -0.0390 C.ar    1  UNL1       -0.0610
     18  C12       -4.1750   -1.7170   -0.7340 C.ar    1  UNL1       -0.0611
     19  C13       -2.8660   -1.3000   -0.7300 C.ar    1  UNL1       -0.0521
     20  C14       -2.5020   -0.1620   -0.0410 C.ar    1  UNL1        0.0106
     21  C15        2.0630   -0.3310    0.3000 C.ar    1  UNL1       -0.0149
     22 H           7.5491   -1.6179    1.0522 H       1  UNL1        0.1976
     23 H           5.2201   -2.2705    2.3504 H       1  UNL1        0.1591
     24 H           4.7320    1.5110   -0.4919 H       1  UNL1        0.0654
     25 H           3.2117    2.1635   -2.2478 H       1  UNL1        0.0619
     26 H           1.0044    1.2496   -2.3833 H       1  UNL1        0.0620
     27 H          -0.1708   -1.5274   -0.3847 H       1  UNL1        0.0377
     28 H          -0.4683   -0.5146   -1.8139 H       1  UNL1        0.0377
     29 H          -1.5390    2.8590    1.7879 H       1  UNL1        0.1921
     30 H          -5.5119    0.6860    1.1676 H       1  UNL1        0.0625
     31 H          -6.1335   -1.3118   -0.0451 H       1  UNL1        0.0618
     32 H          -4.4401   -2.5691   -1.2524 H       1  UNL1        0.0618
     33 H          -2.1527   -1.8401   -1.2443 H       1  UNL1        0.0624
     34 H           1.7578   -1.0170    1.0081 H       1  UNL1        0.0657
@<TRIPOS>BOND
     1     1     2    2
     2     2     3    1
     3     3     4    1
     4     4     5   ar
     5     4    21   ar
     6     5     6   ar
     7     6     7   ar
     8     7     8   ar
     9     8     9    1
    10     8    21   ar
    11     9    10    1
    12    10    11   ar
    13    10    20   ar
    14    11    12   ar
    15    12    13   ar
    16    13    14    2
    17    13    15   ar
    18    15    16   ar
    19    15    20   ar
    20    16    17   ar
    21    17    18   ar
    22    18    19   ar
    23    19    20   ar
    24     1    22    1
    25     2    23    1
    26     5    24    1
    27     6    25    1
    28     7    26    1
    29     9    27    1
    30     9    28    1
    31    12    29    1
    32    16    30    1
    33    17    31    1
    34    18    32    1
    35    19    33    1
    36    21    34    1
@<TRIPOS>MOLECULE
../data/bude_mols_rdkit_confs2/molecule_59.pdb
 34 36 0 0 0
SMALL
GASTEIGER

@<TRIPOS>ATOM
      1  N1         5.6040    1.2510   -0.7020 N.2     1  UNL1       -0.2466
      2  S1         5.5780    0.2950    0.5250 S.3     1  UNL1        0.0680
      3  O1         4.0620    0.2310    1.3260 O.3     1  UNL1       -0.4186
      4  C1         2.9950   -0.5620    0.8870 C.ar    1  UNL1        0.1393
      5  C2         2.8610   -1.8640    1.3410 C.ar    1  UNL1       -0.0184
      6  C3         1.8130   -2.6230    0.9030 C.ar    1  UNL1       -0.0580
      7  C4         0.8840   -2.0870    0.0010 C.ar    1  UNL1       -0.0580
      8  C5         0.9780   -0.8150   -0.4680 C.ar    1  UNL1       -0.0380
      9  C6         0.0080   -0.2290   -1.4070 C.3     1  UNL1        0.0172
     10  C7        -0.9270    0.7390   -0.8240 C.ar    1  UNL1        0.0736
     11  N2        -0.6360    2.0810   -0.8710 N.ar    1  UNL1       -0.1750
     12  N3        -1.3950    3.0020   -0.3310 N.ar    1  UNL1       -0.2425
     13  C8        -2.5260    2.7120    0.3170 C.ar    1  UNL1        0.2725
     14  O2        -3.2610    3.5910    0.8400 O.2     1  UNL1       -0.2658
     15  C9        -2.8940    1.3840    0.4090 C.ar    1  UNL1        0.0496
     16  C10       -4.0760    1.0230    1.0610 C.ar    1  UNL1       -0.0487
     17  C11       -4.4790   -0.2850    1.1550 C.ar    1  UNL1       -0.0610
     18  C12       -3.6550   -1.2240    0.5720 C.ar    1  UNL1       -0.0611
     19  C13       -2.5020   -0.8790   -0.0640 C.ar    1  UNL1       -0.0521
     20  C14       -2.0850    0.4370   -0.1630 C.ar    1  UNL1        0.0106
     21  C15        2.0690   -0.0600    0.0030 C.ar    1  UNL1       -0.0149
     22 H           6.4302    1.3556   -1.2271 H       1  UNL1        0.1976
     23 H           6.5152    0.7165    1.4158 H       1  UNL1        0.1591
     24 H           3.5469   -2.2571    2.0043 H       1  UNL1        0.0654
     25 H           1.7052   -3.5934    1.2372 H       1  UNL1        0.0619
     26 H           0.1012   -2.6789   -0.3182 H       1  UNL1        0.0620
     27 H          -0.5649   -1.0273   -1.8305 H       1  UNL1        0.0377
     28 H           0.5851    0.3148   -2.1254 H       1  UNL1        0.0377
     29 H          -1.1209    3.9446   -0.4058 H       1  UNL1        0.1921
     30 H          -4.6617    1.7603    1.4833 H       1  UNL1        0.0625
     31 H          -5.3521   -0.5517    1.6363 H       1  UNL1        0.0618
     32 H          -3.9207   -2.2201    0.6193 H       1  UNL1        0.0618
     33 H          -1.9213   -1.6210   -0.4850 H       1  UNL1        0.0624
     34 H           2.1784    0.9110   -0.3291 H       1  UNL1        0.0657
@<TRIPOS>BOND
     1     1     2    2
     2     2     3    1
     3     3     4    1
     4     4     5   ar
     5     4    21   ar
     6     5     6   ar
     7     6     7   ar
     8     7     8   ar
     9     8     9    1
    10     8    21   ar
    11     9    10    1
    12    10    11   ar
    13    10    20   ar
    14    11    12   ar
    15    12    13   ar
    16    13    14    2
    17    13    15   ar
    18    15    16   ar
    19    15    20   ar
    20    16    17   ar
    21    17    18   ar
    22    18    19   ar
    23    19    20   ar
    24     1    22    1
    25     2    23    1
    26     5    24    1
    27     6    25    1
    28     7    26    1
    29     9    27    1
    30     9    28    1
    31    12    29    1
    32    16    30    1
    33    17    31    1
    34    18    32    1
    35    19    33    1
    36    21    34    1
@<TRIPOS>MOLECULE
../data/bude_mols_rdkit_confs2/molecule_59.pdb
 34 36 0 0 0
SMALL
GASTEIGER

@<TRIPOS>ATOM
      1  N1         5.8130   -2.0220    1.7370 N.2     1  UNL1       -0.2466
      2  S1         4.7960   -0.8300    1.7110 S.3     1  UNL1        0.0680
      3  O1         4.4080   -0.4570    0.0990 O.3     1  UNL1       -0.4186
      4  C1         3.4150    0.4100   -0.3030 C.ar    1  UNL1        0.1393
      5  C2         3.6190    1.7610   -0.5060 C.ar    1  UNL1       -0.0184
      6  C3         2.5980    2.6020   -0.9100 C.ar    1  UNL1       -0.0580
      7  C4         1.3280    2.1070   -1.1240 C.ar    1  UNL1       -0.0580
      8  C5         1.1130    0.7600   -0.9250 C.ar    1  UNL1       -0.0380
      9  C6        -0.2010    0.1530   -1.1290 C.3     1  UNL1        0.0172
     10  C7        -1.0560    0.1440    0.0790 C.ar    1  UNL1        0.0736
     11  N2        -0.6810    0.6390    1.2560 N.ar    1  UNL1       -0.1750
     12  N3        -1.5110    0.5850    2.2730 N.ar    1  UNL1       -0.2425
     13  C8        -2.7480    0.0520    2.2130 C.ar    1  UNL1        0.2725
     14  O2        -3.5270    0.0060    3.1830 O.2     1  UNL1       -0.2658
     15  C9        -3.1840   -0.4760    1.0110 C.ar    1  UNL1        0.0496
     16  C10       -4.4220   -1.0370    0.8510 C.ar    1  UNL1       -0.0487
     17  C11       -4.8530   -1.5680   -0.3710 C.ar    1  UNL1       -0.0610
     18  C12       -3.9770   -1.5060   -1.4250 C.ar    1  UNL1       -0.0611
     19  C13       -2.7340   -0.9450   -1.2770 C.ar    1  UNL1       -0.0521
     20  C14       -2.3080   -0.4140   -0.0480 C.ar    1  UNL1        0.0106
     21  C15        2.1500   -0.0890   -0.5160 C.ar    1  UNL1       -0.0149
     22 H           6.1447   -2.3674    2.5972 H       1  UNL1        0.1976
     23 H           5.3552    0.2572    2.3068 H       1  UNL1        0.1591
     24 H           4.5606    2.1543   -0.3517 H       1  UNL1        0.0654
     25 H           2.7873    3.6064   -1.0523 H       1  UNL1        0.0619
     26 H           0.5604    2.7279   -1.4247 H       1  UNL1        0.0620
     27 H          -0.0582   -0.8585   -1.4473 H       1  UNL1        0.0377
     28 H          -0.7061    0.7487   -1.8604 H       1  UNL1        0.0377
     29 H          -1.2107    0.9573    3.1335 H       1  UNL1        0.1921
     30 H          -5.0613   -1.0699    1.6605 H       1  UNL1        0.0625
     31 H          -5.7899   -1.9882   -0.4743 H       1  UNL1        0.0618
     32 H          -4.2572   -1.8869   -2.3423 H       1  UNL1        0.0618
     33 H          -2.0965   -0.9122   -2.0879 H       1  UNL1        0.0624
     34 H           1.9642   -1.0941   -0.3737 H       1  UNL1        0.0657
@<TRIPOS>BOND
     1     1     2    2
     2     2     3    1
     3     3     4    1
     4     4     5   ar
     5     4    21   ar
     6     5     6   ar
     7     6     7   ar
     8     7     8   ar
     9     8     9    1
    10     8    21   ar
    11     9    10    1
    12    10    11   ar
    13    10    20   ar
    14    11    12   ar
    15    12    13   ar
    16    13    14    2
    17    13    15   ar
    18    15    16   ar
    19    15    20   ar
    20    16    17   ar
    21    17    18   ar
    22    18    19   ar
    23    19    20   ar
    24     1    22    1
    25     2    23    1
    26     5    24    1
    27     6    25    1
    28     7    26    1
    29     9    27    1
    30     9    28    1
    31    12    29    1
    32    16    30    1
    33    17    31    1
    34    18    32    1
    35    19    33    1
    36    21    34    1
@<TRIPOS>MOLECULE
../data/bude_mols_rdkit_confs2/molecule_59.pdb
 34 36 0 0 0
SMALL
GASTEIGER

@<TRIPOS>ATOM
      1  N1         6.1130   -0.2210    1.6540 N.2     1  UNL1       -0.2466
      2  S1         5.5400   -1.2890    0.6450 S.3     1  UNL1        0.0680
      3  O1         4.5580   -0.4580   -0.5280 O.3     1  UNL1       -0.4186
      4  C1         3.2390   -0.1350   -0.1770 C.ar    1  UNL1        0.1393
      5  C2         3.0680    1.1060    0.4230 C.ar    1  UNL1       -0.0184
      6  C3         1.7800    1.4480    0.7770 C.ar    1  UNL1       -0.0580
      7  C4         0.7160    0.5990    0.5470 C.ar    1  UNL1       -0.0580
      8  C5         0.8970   -0.6280   -0.0480 C.ar    1  UNL1       -0.0380
      9  C6        -0.2040   -1.5730   -0.3170 C.3     1  UNL1        0.0172
     10  C7        -1.5130   -1.0690    0.1130 C.ar    1  UNL1        0.0736
     11  N2        -2.0970   -1.5240    1.2330 N.ar    1  UNL1       -0.1750
     12  N3        -3.2600   -1.1180    1.6760 N.ar    1  UNL1       -0.2425
     13  C8        -3.9680   -0.1870    1.0100 C.ar    1  UNL1        0.2725
     14  O2        -5.0900    0.2060    1.4350 O.2     1  UNL1       -0.2658
     15  C9        -3.4020    0.3070   -0.1500 C.ar    1  UNL1        0.0496
     16  C10       -4.0810    1.2620   -0.8740 C.ar    1  UNL1       -0.0487
     17  C11       -3.5590    1.7990   -2.0550 C.ar    1  UNL1       -0.0610
     18  C12       -2.3290    1.3570   -2.5040 C.ar    1  UNL1       -0.0611
     19  C13       -1.6280    0.4040   -1.8010 C.ar    1  UNL1       -0.0521
     20  C14       -2.1780   -0.1020   -0.6400 C.ar    1  UNL1        0.0106
     21  C15        2.1780   -0.9850   -0.4090 C.ar    1  UNL1       -0.0149
     22 H           6.6962   -0.5063    2.3941 H       1  UNL1        0.1976
     23 H           4.7839   -2.1980    1.3171 H       1  UNL1        0.1591
     24 H           3.8642    1.7396    0.5950 H       1  UNL1        0.0654
     25 H           1.6071    2.3614    1.2251 H       1  UNL1        0.0619
     26 H          -0.2336    0.8905    0.8269 H       1  UNL1        0.0620
     27 H          -0.0033   -2.4865    0.2027 H       1  UNL1        0.0377
     28 H          -0.2496   -1.7165   -1.3764 H       1  UNL1        0.0377
     29 H          -3.6220   -1.4992    2.5084 H       1  UNL1        0.1921
     30 H          -4.9993    1.5899   -0.5360 H       1  UNL1        0.0625
     31 H          -4.0838    2.5139   -2.5828 H       1  UNL1        0.0618
     32 H          -1.9326    1.7451   -3.3742 H       1  UNL1        0.0618
     33 H          -0.7091    0.0739   -2.1351 H       1  UNL1        0.0624
     34 H           2.3454   -1.8989   -0.8581 H       1  UNL1        0.0657
@<TRIPOS>BOND
     1     1     2    2
     2     2     3    1
     3     3     4    1
     4     4     5   ar
     5     4    21   ar
     6     5     6   ar
     7     6     7   ar
     8     7     8   ar
     9     8     9    1
    10     8    21   ar
    11     9    10    1
    12    10    11   ar
    13    10    20   ar
    14    11    12   ar
    15    12    13   ar
    16    13    14    2
    17    13    15   ar
    18    15    16   ar
    19    15    20   ar
    20    16    17   ar
    21    17    18   ar
    22    18    19   ar
    23    19    20   ar
    24     1    22    1
    25     2    23    1
    26     5    24    1
    27     6    25    1
    28     7    26    1
    29     9    27    1
    30     9    28    1
    31    12    29    1
    32    16    30    1
    33    17    31    1
    34    18    32    1
    35    19    33    1
    36    21    34    1
@<TRIPOS>MOLECULE
../data/bude_mols_rdkit_confs2/molecule_59.pdb
 34 36 0 0 0
SMALL
GASTEIGER

@<TRIPOS>ATOM
      1  N1         5.1750    0.8490   -2.0550 N.2     1  UNL1       -0.2466
      2  S1         5.4770   -0.0440   -0.8030 S.3     1  UNL1        0.0680
      3  O1         4.0660   -0.9010   -0.2930 O.3     1  UNL1       -0.4186
      4  C1         3.0290   -0.2340    0.3830 C.ar    1  UNL1        0.1393
      5  C2         3.1140   -0.1610    1.7690 C.ar    1  UNL1       -0.0184
      6  C3         2.1260    0.4840    2.5010 C.ar    1  UNL1       -0.0580
      7  C4         1.0570    1.0490    1.7980 C.ar    1  UNL1       -0.0580
      8  C5         0.9300    1.0020    0.4450 C.ar    1  UNL1       -0.0380
      9  C6        -0.1370    1.5310   -0.3940 C.3     1  UNL1        0.0172
     10  C7        -1.0630    0.5460   -0.9760 C.ar    1  UNL1        0.0736
     11  N2        -0.8790    0.0840   -2.2460 N.ar    1  UNL1       -0.1750
     12  N3        -1.6710   -0.8250   -2.7550 N.ar    1  UNL1       -0.2425
     13  C8        -2.6990   -1.3530   -2.0760 C.ar    1  UNL1        0.2725
     14  O2        -3.4550   -2.2280   -2.5780 O.2     1  UNL1       -0.2658
     15  C9        -2.9530   -0.9370   -0.7870 C.ar    1  UNL1        0.0496
     16  C10       -4.0010   -1.4370   -0.0520 C.ar    1  UNL1       -0.0487
     17  C11       -4.2800   -1.0170    1.2450 C.ar    1  UNL1       -0.0610
     18  C12       -3.4510   -0.0640    1.7750 C.ar    1  UNL1       -0.0611
     19  C13       -2.3970    0.4440    1.0500 C.ar    1  UNL1       -0.0521
     20  C14       -2.1010    0.0320   -0.2560 C.ar    1  UNL1        0.0106
     21  C15        1.9580    0.3390   -0.2350 C.ar    1  UNL1       -0.0149
     22 H           5.8904    1.3949   -2.4544 H       1  UNL1        0.1976
     23 H           5.9065    0.7493    0.2148 H       1  UNL1        0.1591
     24 H           3.9165   -0.5889    2.2567 H       1  UNL1        0.0654
     25 H           2.1787    0.5445    3.5299 H       1  UNL1        0.0619
     26 H           0.3210    1.5301    2.3382 H       1  UNL1        0.0620
     27 H           0.3186    2.0656   -1.2011 H       1  UNL1        0.0377
     28 H          -0.7361    2.1342    0.2557 H       1  UNL1        0.0377
     29 H          -1.5048   -1.1339   -3.6749 H       1  UNL1        0.1921
     30 H          -4.6068   -2.1544   -0.4801 H       1  UNL1        0.0625
     31 H          -5.0723   -1.4043    1.7810 H       1  UNL1        0.0618
     32 H          -3.6195    0.2788    2.7337 H       1  UNL1        0.0618
     33 H          -1.7977    1.1608    1.4882 H       1  UNL1        0.0624
     34 H           1.9018    0.2807   -1.2638 H       1  UNL1        0.0657
@<TRIPOS>BOND
     1     1     2    2
     2     2     3    1
     3     3     4    1
     4     4     5   ar
     5     4    21   ar
     6     5     6   ar
     7     6     7   ar
     8     7     8   ar
     9     8     9    1
    10     8    21   ar
    11     9    10    1
    12    10    11   ar
    13    10    20   ar
    14    11    12   ar
    15    12    13   ar
    16    13    14    2
    17    13    15   ar
    18    15    16   ar
    19    15    20   ar
    20    16    17   ar
    21    17    18   ar
    22    18    19   ar
    23    19    20   ar
    24     1    22    1
    25     2    23    1
    26     5    24    1
    27     6    25    1
    28     7    26    1
    29     9    27    1
    30     9    28    1
    31    12    29    1
    32    16    30    1
    33    17    31    1
    34    18    32    1
    35    19    33    1
    36    21    34    1
@<TRIPOS>MOLECULE
../data/bude_mols_rdkit_confs2/molecule_59.pdb
 34 36 0 0 0
SMALL
GASTEIGER

@<TRIPOS>ATOM
      1  N1         6.5700    1.5620   -0.0410 N.2     1  UNL1       -0.2466
      2  S1         5.3390    0.8560   -0.7650 S.3     1  UNL1        0.0680
      3  O1         3.9130    1.2170    0.1450 O.3     1  UNL1       -0.4186
      4  C1         2.9340    0.2250    0.3370 C.ar    1  UNL1        0.1393
      5  C2         3.0540   -0.5920    1.4550 C.ar    1  UNL1       -0.0184
      6  C3         2.1130   -1.5680    1.6650 C.ar    1  UNL1       -0.0580
      7  C4         1.0560   -1.7230    0.7550 C.ar    1  UNL1       -0.0580
      8  C5         0.9090   -0.9410   -0.3470 C.ar    1  UNL1       -0.0380
      9  C6        -0.1900   -1.0620   -1.3220 C.3     1  UNL1        0.0172
     10  C7        -1.2120    0.0030   -1.2350 C.ar    1  UNL1        0.0736
     11  N2        -1.1310    1.1110   -2.0370 N.ar    1  UNL1       -0.1750
     12  N3        -1.9770    2.1080   -1.9750 N.ar    1  UNL1       -0.2425
     13  C8        -2.9950    2.1100   -1.1130 C.ar    1  UNL1        0.2725
     14  O2        -3.8290    3.0490   -1.0230 O.2     1  UNL1       -0.2658
     15  C9        -3.1570    1.0320   -0.2640 C.ar    1  UNL1        0.0496
     16  C10       -4.2060    0.9820    0.6290 C.ar    1  UNL1       -0.0487
     17  C11       -4.3700   -0.1080    1.4550 C.ar    1  UNL1       -0.0610
     18  C12       -3.4920   -1.1640    1.4030 C.ar    1  UNL1       -0.0611
     19  C13       -2.4370   -1.1050    0.4990 C.ar    1  UNL1       -0.0521
     20  C14       -2.2440   -0.0260   -0.3410 C.ar    1  UNL1        0.0106
     21  C15        1.8970    0.0420   -0.5180 C.ar    1  UNL1       -0.0149
     22 H           7.4772    1.4721   -0.4127 H       1  UNL1        0.1976
     23 H           5.5347   -0.4893   -0.8041 H       1  UNL1        0.1591
     24 H           3.8370   -0.4667    2.1154 H       1  UNL1        0.0654
     25 H           2.1822   -2.1857    2.4888 H       1  UNL1        0.0619
     26 H           0.3592   -2.4638    0.9303 H       1  UNL1        0.0620
     27 H          -0.6744   -2.0028   -1.1634 H       1  UNL1        0.0377
     28 H           0.2547   -0.9762   -2.2914 H       1  UNL1        0.0377
     29 H          -1.8589    2.8758   -2.5799 H       1  UNL1        0.1921
     30 H          -4.8736    1.7674    0.6790 H       1  UNL1        0.0625
     31 H          -5.1596   -0.1319    2.1191 H       1  UNL1        0.0618
     32 H          -3.6129   -1.9819    2.0206 H       1  UNL1        0.0618
     33 H          -1.7750   -1.8954    0.4543 H       1  UNL1        0.0624
     34 H           1.8303    0.6607   -1.3413 H       1  UNL1        0.0657
@<TRIPOS>BOND
     1     1     2    2
     2     2     3    1
     3     3     4    1
     4     4     5   ar
     5     4    21   ar
     6     5     6   ar
     7     6     7   ar
     8     7     8   ar
     9     8     9    1
    10     8    21   ar
    11     9    10    1
    12    10    11   ar
    13    10    20   ar
    14    11    12   ar
    15    12    13   ar
    16    13    14    2
    17    13    15   ar
    18    15    16   ar
    19    15    20   ar
    20    16    17   ar
    21    17    18   ar
    22    18    19   ar
    23    19    20   ar
    24     1    22    1
    25     2    23    1
    26     5    24    1
    27     6    25    1
    28     7    26    1
    29     9    27    1
    30     9    28    1
    31    12    29    1
    32    16    30    1
    33    17    31    1
    34    18    32    1
    35    19    33    1
    36    21    34    1
@<TRIPOS>MOLECULE
../data/bude_mols_rdkit_confs2/molecule_59.pdb
 34 36 0 0 0
SMALL
GASTEIGER

@<TRIPOS>ATOM
      1  N1         5.7330   -1.6400    0.8900 N.2     1  UNL1       -0.2466
      2  S1         4.6640   -2.7080    0.4520 S.3     1  UNL1        0.0680
      3  O1         3.4580   -2.0250   -0.5750 O.3     1  UNL1       -0.4186
      4  C1         2.8710   -0.7980   -0.3380 C.ar    1  UNL1        0.1393
      5  C2         3.4450    0.3290   -0.8740 C.ar    1  UNL1       -0.0184
      6  C3         2.8410    1.5410   -0.6240 C.ar    1  UNL1       -0.0580
      7  C4         1.7000    1.6060    0.1410 C.ar    1  UNL1       -0.0580
      8  C5         1.0930    0.4720    0.6990 C.ar    1  UNL1       -0.0380
      9  C6        -0.1220    0.6290    1.5320 C.3     1  UNL1        0.0172
     10  C7        -1.3280    0.9900    0.7520 C.ar    1  UNL1        0.0736
     11  N2        -1.7010    2.3020    0.6800 N.ar    1  UNL1       -0.1750
     12  N3        -2.7230    2.7370   -0.0030 N.ar    1  UNL1       -0.2425
     13  C8        -3.5030    1.9200   -0.7010 C.ar    1  UNL1        0.2725
     14  O2        -4.5010    2.3530   -1.3680 O.2     1  UNL1       -0.2658
     15  C9        -3.1970    0.5740   -0.6820 C.ar    1  UNL1        0.0496
     16  C10       -4.0140   -0.2830   -1.4010 C.ar    1  UNL1       -0.0487
     17  C11       -3.7380   -1.6300   -1.3900 C.ar    1  UNL1       -0.0610
     18  C12       -2.6570   -2.0730   -0.6620 C.ar    1  UNL1       -0.0611
     19  C13       -1.8410   -1.2280    0.0530 C.ar    1  UNL1       -0.0521
     20  C14       -2.1000    0.1130    0.0530 C.ar    1  UNL1        0.0106
     21  C15        1.7080   -0.7210    0.4400 C.ar    1  UNL1       -0.0149
     22 H           6.4775   -1.9015    1.4788 H       1  UNL1        0.1976
     23 H           4.0624   -3.2099    1.5637 H       1  UNL1        0.1591
     24 H           4.3019    0.2693   -1.4460 H       1  UNL1        0.0654
     25 H           3.2472    2.4062   -1.0132 H       1  UNL1        0.0619
     26 H           1.2721    2.5294    0.3117 H       1  UNL1        0.0620
     27 H           0.0584    1.3987    2.2530 H       1  UNL1        0.0377
     28 H          -0.3147   -0.3183    1.9907 H       1  UNL1        0.0377
     29 H          -2.9225    3.7011   -0.0011 H       1  UNL1        0.1921
     30 H          -4.8167    0.0835   -1.9362 H       1  UNL1        0.0625
     31 H          -4.3280   -2.2938   -1.9157 H       1  UNL1        0.0618
     32 H          -2.4498   -3.0839   -0.6523 H       1  UNL1        0.0618
     33 H          -1.0403   -1.6037    0.5847 H       1  UNL1        0.0624
     34 H           1.3050   -1.5883    0.8278 H       1  UNL1        0.0657
@<TRIPOS>BOND
     1     1     2    2
     2     2     3    1
     3     3     4    1
     4     4     5   ar
     5     4    21   ar
     6     5     6   ar
     7     6     7   ar
     8     7     8   ar
     9     8     9    1
    10     8    21   ar
    11     9    10    1
    12    10    11   ar
    13    10    20   ar
    14    11    12   ar
    15    12    13   ar
    16    13    14    2
    17    13    15   ar
    18    15    16   ar
    19    15    20   ar
    20    16    17   ar
    21    17    18   ar
    22    18    19   ar
    23    19    20   ar
    24     1    22    1
    25     2    23    1
    26     5    24    1
    27     6    25    1
    28     7    26    1
    29     9    27    1
    30     9    28    1
    31    12    29    1
    32    16    30    1
    33    17    31    1
    34    18    32    1
    35    19    33    1
    36    21    34    1
@<TRIPOS>MOLECULE
../data/bude_mols_rdkit_confs2/molecule_59.pdb
 34 36 0 0 0
SMALL
GASTEIGER

@<TRIPOS>ATOM
      1  N1         5.8250   -3.2660    0.7670 N.2     1  UNL1       -0.2466
      2  S1         4.3340   -2.8020    0.6460 S.3     1  UNL1        0.0680
      3  O1         4.2150   -1.2130    1.3410 O.3     1  UNL1       -0.4186
      4  C1         3.4300   -0.2320    0.7110 C.ar    1  UNL1        0.1393
      5  C2         4.0320    0.5860   -0.2380 C.ar    1  UNL1       -0.0184
      6  C3         3.2770    1.5410   -0.8550 C.ar    1  UNL1       -0.0580
      7  C4         1.9260    1.6920   -0.5390 C.ar    1  UNL1       -0.0580
      8  C5         1.3120    0.8880    0.4010 C.ar    1  UNL1       -0.0380
      9  C6        -0.1080    1.0820    0.7000 C.3     1  UNL1        0.0172
     10  C7        -1.0160    0.2900   -0.1330 C.ar    1  UNL1        0.0736
     11  N2        -0.6660   -0.5550   -1.0970 N.ar    1  UNL1       -0.1750
     12  N3        -1.5220   -1.2510   -1.8250 N.ar    1  UNL1       -0.2425
     13  C8        -2.8410   -1.1320   -1.6150 C.ar    1  UNL1        0.2725
     14  O2        -3.6820   -1.7750   -2.2850 O.2     1  UNL1       -0.2658
     15  C9        -3.3030   -0.2810   -0.6370 C.ar    1  UNL1        0.0496
     16  C10       -4.6570   -0.1400   -0.4010 C.ar    1  UNL1       -0.0487
     17  C11       -5.0960    0.7250    0.5920 C.ar    1  UNL1       -0.0610
     18  C12       -4.2040    1.4450    1.3450 C.ar    1  UNL1       -0.0611
     19  C13       -2.8580    1.2840    1.0860 C.ar    1  UNL1       -0.0521
     20  C14       -2.3810    0.4300    0.1030 C.ar    1  UNL1        0.0106
     21  C15        2.0930   -0.0760    1.0180 C.ar    1  UNL1       -0.0149
     22 H           6.0949   -4.1492    0.4260 H       1  UNL1        0.1976
     23 H           3.5251   -3.6634    1.3192 H       1  UNL1        0.1591
     24 H           5.0309    0.4733   -0.4716 H       1  UNL1        0.0654
     25 H           3.7089    2.1569   -1.5615 H       1  UNL1        0.0619
     26 H           1.3739    2.4203   -1.0182 H       1  UNL1        0.0620
     27 H          -0.3413    2.1167    0.5588 H       1  UNL1        0.0377
     28 H          -0.2551    0.7547    1.7080 H       1  UNL1        0.0377
     29 H          -1.1898   -1.8592   -2.5242 H       1  UNL1        0.1921
     30 H          -5.3391   -0.6755   -0.9605 H       1  UNL1        0.0625
     31 H          -6.1080    0.8278    0.7661 H       1  UNL1        0.0618
     32 H          -4.5297    2.0882    2.0834 H       1  UNL1        0.0618
     33 H          -2.1785    1.8213    1.6469 H       1  UNL1        0.0624
     34 H           1.6643   -0.6933    1.7252 H       1  UNL1        0.0657
@<TRIPOS>BOND
     1     1     2    2
     2     2     3    1
     3     3     4    1
     4     4     5   ar
     5     4    21   ar
     6     5     6   ar
     7     6     7   ar
     8     7     8   ar
     9     8     9    1
    10     8    21   ar
    11     9    10    1
    12    10    11   ar
    13    10    20   ar
    14    11    12   ar
    15    12    13   ar
    16    13    14    2
    17    13    15   ar
    18    15    16   ar
    19    15    20   ar
    20    16    17   ar
    21    17    18   ar
    22    18    19   ar
    23    19    20   ar
    24     1    22    1
    25     2    23    1
    26     5    24    1
    27     6    25    1
    28     7    26    1
    29     9    27    1
    30     9    28    1
    31    12    29    1
    32    16    30    1
    33    17    31    1
    34    18    32    1
    35    19    33    1
    36    21    34    1
@<TRIPOS>MOLECULE
../data/bude_mols_rdkit_confs2/molecule_59.pdb
 34 36 0 0 0
SMALL
GASTEIGER

@<TRIPOS>ATOM
      1  N1         5.0850    2.0050    0.3060 N.2     1  UNL1       -0.2466
      2  S1         5.6010    0.7120    1.0570 S.3     1  UNL1        0.0680
      3  O1         4.3430   -0.4430    1.2480 O.3     1  UNL1       -0.4186
      4  C1         3.4190   -0.7250    0.2590 C.ar    1  UNL1        0.1393
      5  C2         3.6810   -1.7240   -0.6660 C.ar    1  UNL1       -0.0184
      6  C3         2.7720   -2.0200   -1.6610 C.ar    1  UNL1       -0.0580
      7  C4         1.5920   -1.3090   -1.7280 C.ar    1  UNL1       -0.0580
      8  C5         1.2910   -0.3030   -0.8250 C.ar    1  UNL1       -0.0380
      9  C6         0.0300    0.4280   -0.9280 C.3     1  UNL1        0.0172
     10  C7        -1.0760   -0.1850   -0.1560 C.ar    1  UNL1        0.0736
     11  N2        -0.9680   -1.2890    0.5690 N.ar    1  UNL1       -0.1750
     12  N3        -1.9930   -1.8090    1.2520 N.ar    1  UNL1       -0.2425
     13  C8        -3.2150   -1.2400    1.2470 C.ar    1  UNL1        0.2725
     14  O2        -4.1930   -1.7220    1.8890 O.2     1  UNL1       -0.2658
     15  C9        -3.3810   -0.0890    0.5080 C.ar    1  UNL1        0.0496
     16  C10       -4.6080    0.5660    0.4470 C.ar    1  UNL1       -0.0487
     17  C11       -4.7810    1.7090   -0.2850 C.ar    1  UNL1       -0.0610
     18  C12       -3.7020    2.2150   -0.9750 C.ar    1  UNL1       -0.0611
     19  C13       -2.4610    1.6000   -0.9450 C.ar    1  UNL1       -0.0521
     20  C14       -2.3040    0.4490   -0.2030 C.ar    1  UNL1        0.0106
     21  C15        2.2210   -0.0330    0.1560 C.ar    1  UNL1       -0.0149
     22 H           5.7028    2.7506    0.1285 H       1  UNL1        0.1976
     23 H           6.0653    1.0684    2.2846 H       1  UNL1        0.1591
     24 H           4.5658   -2.2522   -0.6097 H       1  UNL1        0.0654
     25 H           2.9727   -2.7645   -2.3469 H       1  UNL1        0.0619
     26 H           0.9136   -1.5332   -2.4727 H       1  UNL1        0.0620
     27 H          -0.2565    0.4647   -1.9583 H       1  UNL1        0.0377
     28 H           0.1974    1.4016   -0.5170 H       1  UNL1        0.0377
     29 H          -1.8511   -2.6316    1.7739 H       1  UNL1        0.1921
     30 H          -5.4097    0.1785    0.9686 H       1  UNL1        0.0625
     31 H          -5.6983    2.1807   -0.3192 H       1  UNL1        0.0618
     32 H          -3.8212    3.0767   -1.5302 H       1  UNL1        0.0618
     33 H          -1.6664    1.9974   -1.4700 H       1  UNL1        0.0624
     34 H           2.0183    0.7126    0.8401 H       1  UNL1        0.0657
@<TRIPOS>BOND
     1     1     2    2
     2     2     3    1
     3     3     4    1
     4     4     5   ar
     5     4    21   ar
     6     5     6   ar
     7     6     7   ar
     8     7     8   ar
     9     8     9    1
    10     8    21   ar
    11     9    10    1
    12    10    11   ar
    13    10    20   ar
    14    11    12   ar
    15    12    13   ar
    16    13    14    2
    17    13    15   ar
    18    15    16   ar
    19    15    20   ar
    20    16    17   ar
    21    17    18   ar
    22    18    19   ar
    23    19    20   ar
    24     1    22    1
    25     2    23    1
    26     5    24    1
    27     6    25    1
    28     7    26    1
    29     9    27    1
    30     9    28    1
    31    12    29    1
    32    16    30    1
    33    17    31    1
    34    18    32    1
    35    19    33    1
    36    21    34    1
@<TRIPOS>MOLECULE
../data/bude_mols_rdkit_confs2/molecule_59.pdb
 34 36 0 0 0
SMALL
GASTEIGER

@<TRIPOS>ATOM
      1  N1         6.3380    1.7500    0.7240 N.2     1  UNL1       -0.2466
      2  S1         5.0300    1.0780    1.2340 S.3     1  UNL1        0.0680
      3  O1         3.6670    1.4390    0.2290 O.3     1  UNL1       -0.4186
      4  C1         2.8890    0.4290   -0.3420 C.ar    1  UNL1        0.1393
      5  C2         3.1690   -0.1020   -1.5780 C.ar    1  UNL1       -0.0184
      6  C3         2.4050   -1.0970   -2.1450 C.ar    1  UNL1       -0.0580
      7  C4         1.3300   -1.5490   -1.4150 C.ar    1  UNL1       -0.0580
      8  C5         0.9920   -1.0570   -0.1650 C.ar    1  UNL1       -0.0380
      9  C6        -0.1730   -1.6490    0.5160 C.3     1  UNL1        0.0172
     10  C7        -1.4800   -1.2540   -0.0320 C.ar    1  UNL1        0.0736
     11  N2        -2.1170   -2.0660   -0.9370 N.ar    1  UNL1       -0.1750
     12  N3        -3.2560   -1.7550   -1.4890 N.ar    1  UNL1       -0.2425
     13  C8        -3.9440   -0.6300   -1.2550 C.ar    1  UNL1        0.2725
     14  O2        -5.0440   -0.3540   -1.8040 O.2     1  UNL1       -0.2658
     15  C9        -3.3600    0.2540   -0.3400 C.ar    1  UNL1        0.0496
     16  C10       -4.0230    1.4240   -0.0460 C.ar    1  UNL1       -0.0487
     17  C11       -3.4720    2.3020    0.8630 C.ar    1  UNL1       -0.0610
     18  C12       -2.2680    1.9880    1.4580 C.ar    1  UNL1       -0.0611
     19  C13       -1.6110    0.8030    1.1510 C.ar    1  UNL1       -0.0521
     20  C14       -2.1430   -0.0850    0.2460 C.ar    1  UNL1        0.0106
     21  C15        1.7830   -0.0710    0.3510 C.ar    1  UNL1       -0.0149
     22 H           7.1821    1.6184    1.2133 H       1  UNL1        0.1976
     23 H           4.7735    1.5218    2.4937 H       1  UNL1        0.1591
     24 H           3.9824    0.2586   -2.1008 H       1  UNL1        0.0654
     25 H           2.6283   -1.4858   -3.0745 H       1  UNL1        0.0619
     26 H           0.7436   -2.2951   -1.8207 H       1  UNL1        0.0620
     27 H          -0.1414   -1.3547    1.5442 H       1  UNL1        0.0377
     28 H          -0.0966   -2.7069    0.3746 H       1  UNL1        0.0377
     29 H          -3.6408   -2.3974   -2.1281 H       1  UNL1        0.1921
     30 H          -4.9232    1.6417   -0.5013 H       1  UNL1        0.0625
     31 H          -3.9548    3.1839    1.0955 H       1  UNL1        0.0618
     32 H          -1.8502    2.6410    2.1393 H       1  UNL1        0.0618
     33 H          -0.7116    0.5863    1.6083 H       1  UNL1        0.0624
     34 H           1.5575    0.3167    1.2805 H       1  UNL1        0.0657
@<TRIPOS>BOND
     1     1     2    2
     2     2     3    1
     3     3     4    1
     4     4     5   ar
     5     4    21   ar
     6     5     6   ar
     7     6     7   ar
     8     7     8   ar
     9     8     9    1
    10     8    21   ar
    11     9    10    1
    12    10    11   ar
    13    10    20   ar
    14    11    12   ar
    15    12    13   ar
    16    13    14    2
    17    13    15   ar
    18    15    16   ar
    19    15    20   ar
    20    16    17   ar
    21    17    18   ar
    22    18    19   ar
    23    19    20   ar
    24     1    22    1
    25     2    23    1
    26     5    24    1
    27     6    25    1
    28     7    26    1
    29     9    27    1
    30     9    28    1
    31    12    29    1
    32    16    30    1
    33    17    31    1
    34    18    32    1
    35    19    33    1
    36    21    34    1
@<TRIPOS>MOLECULE
../data/bude_mols_rdkit_confs2/molecule_59.pdb
 34 36 0 0 0
SMALL
GASTEIGER

@<TRIPOS>ATOM
      1  N1         5.3500    2.6800    0.4550 N.2     1  UNL1       -0.2466
      2  S1         4.3760    1.9210   -0.5210 S.3     1  UNL1        0.0680
      3  O1         4.2170    0.2740   -0.1120 O.3     1  UNL1       -0.4186
      4  C1         3.1070   -0.3050    0.4920 C.ar    1  UNL1        0.1393
      5  C2         3.0410   -0.3530    1.8690 C.ar    1  UNL1       -0.0184
      6  C3         1.9500   -0.9250    2.5220 C.ar    1  UNL1       -0.0580
      7  C4         0.9200   -1.4500    1.7270 C.ar    1  UNL1       -0.0580
      8  C5         0.9420   -1.4240    0.3610 C.ar    1  UNL1       -0.0380
      9  C6        -0.1410   -1.9580   -0.5340 C.3     1  UNL1        0.0172
     10  C7        -1.0030   -0.8940   -1.0810 C.ar    1  UNL1        0.0736
     11  N2        -0.7100   -0.3760   -2.3130 N.ar    1  UNL1       -0.1750
     12  N3        -1.3740    0.6030   -2.8660 N.ar    1  UNL1       -0.2425
     13  C8        -2.4200    1.2020   -2.2740 C.ar    1  UNL1        0.2725
     14  O2        -3.0300    2.1560   -2.8640 O.2     1  UNL1       -0.2658
     15  C9        -2.7810    0.7360   -1.0290 C.ar    1  UNL1        0.0496
     16  C10       -3.8560    1.3110   -0.3920 C.ar    1  UNL1       -0.0487
     17  C11       -4.2300    0.8430    0.8350 C.ar    1  UNL1       -0.0610
     18  C12       -3.5240   -0.1960    1.4150 C.ar    1  UNL1       -0.0611
     19  C13       -2.4480   -0.7830    0.8000 C.ar    1  UNL1       -0.0521
     20  C14       -2.0700   -0.3090   -0.4410 C.ar    1  UNL1        0.0106
     21  C15        2.0690   -0.8340   -0.2260 C.ar    1  UNL1       -0.0149
     22 H           5.5270    3.6398    0.3258 H       1  UNL1        0.1976
     23 H           4.8633    2.0138   -1.7873 H       1  UNL1        0.1591
     24 H           3.8142    0.0422    2.4267 H       1  UNL1        0.0654
     25 H           1.9018   -0.9609    3.5522 H       1  UNL1        0.0619
     26 H           0.1061   -1.8766    2.1968 H       1  UNL1        0.0620
     27 H          -0.7485   -2.6347    0.0299 H       1  UNL1        0.0377
     28 H           0.3333   -2.4462   -1.3596 H       1  UNL1        0.0377
     29 H          -1.0953    0.9160   -3.7568 H       1  UNL1        0.1921
     30 H          -4.3732    2.0861   -0.8357 H       1  UNL1        0.0625
     31 H          -5.0347    1.2619    1.3270 H       1  UNL1        0.0618
     32 H          -3.8172   -0.5411    2.3423 H       1  UNL1        0.0618
     33 H          -1.9355   -1.5566    1.2514 H       1  UNL1        0.0624
     34 H           2.1191   -0.7963   -1.2561 H       1  UNL1        0.0657
@<TRIPOS>BOND
     1     1     2    2
     2     2     3    1
     3     3     4    1
     4     4     5   ar
     5     4    21   ar
     6     5     6   ar
     7     6     7   ar
     8     7     8   ar
     9     8     9    1
    10     8    21   ar
    11     9    10    1
    12    10    11   ar
    13    10    20   ar
    14    11    12   ar
    15    12    13   ar
    16    13    14    2
    17    13    15   ar
    18    15    16   ar
    19    15    20   ar
    20    16    17   ar
    21    17    18   ar
    22    18    19   ar
    23    19    20   ar
    24     1    22    1
    25     2    23    1
    26     5    24    1
    27     6    25    1
    28     7    26    1
    29     9    27    1
    30     9    28    1
    31    12    29    1
    32    16    30    1
    33    17    31    1
    34    18    32    1
    35    19    33    1
    36    21    34    1
@<TRIPOS>MOLECULE
../data/bude_mols_rdkit_confs2/molecule_59.pdb
 34 36 0 0 0
SMALL
GASTEIGER

@<TRIPOS>ATOM
      1  N1         6.8760   -0.0010   -0.0130 N.2     1  UNL1       -0.2466
      2  S1         5.5270    0.7360    0.2330 S.3     1  UNL1        0.0680
      3  O1         4.3920   -0.4270    0.8370 O.3     1  UNL1       -0.4186
      4  C1         3.3280   -0.7700   -0.0140 C.ar    1  UNL1        0.1393
      5  C2         3.4490   -1.8190   -0.9010 C.ar    1  UNL1       -0.0184
      6  C3         2.3990   -2.1470   -1.7300 C.ar    1  UNL1       -0.0580
      7  C4         1.1960   -1.4410   -1.7020 C.ar    1  UNL1       -0.0580
      8  C5         1.0750   -0.3940   -0.8160 C.ar    1  UNL1       -0.0380
      9  C6        -0.1780    0.3700   -0.7600 C.3     1  UNL1        0.0172
     10  C7        -1.1540   -0.1710    0.1990 C.ar    1  UNL1        0.0736
     11  N2        -0.9830   -1.2390    0.9660 N.ar    1  UNL1       -0.1750
     12  N3        -1.8790   -1.7010    1.8190 N.ar    1  UNL1       -0.2425
     13  C8        -3.0520   -1.0560    1.9290 C.ar    1  UNL1        0.2725
     14  O2        -3.9660   -1.4330    2.7220 O.2     1  UNL1       -0.2658
     15  C9        -3.3390    0.0710    1.1760 C.ar    1  UNL1        0.0496
     16  C10       -4.5550    0.7290    1.2980 C.ar    1  UNL1       -0.0487
     17  C11       -4.7760    1.8420    0.5210 C.ar    1  UNL1       -0.0610
     18  C12       -3.8100    2.2840   -0.3530 C.ar    1  UNL1       -0.0611
     19  C13       -2.6030    1.6350   -0.4780 C.ar    1  UNL1       -0.0521
     20  C14       -2.3720    0.5140    0.3010 C.ar    1  UNL1        0.0106
     21  C15        2.1360   -0.0810    0.0060 C.ar    1  UNL1       -0.0149
     22 H           7.6522    0.4956   -0.3596 H       1  UNL1        0.1976
     23 H           5.0700    1.2666   -0.9329 H       1  UNL1        0.1591
     24 H           4.3274   -2.3590   -0.9437 H       1  UNL1        0.0654
     25 H           2.5048   -2.9347   -2.3883 H       1  UNL1        0.0619
     26 H           0.4172   -1.6968   -2.3289 H       1  UNL1        0.0620
     27 H          -0.6215    0.3647   -1.7337 H       1  UNL1        0.0377
     28 H           0.0705    1.3577   -0.4321 H       1  UNL1        0.0377
     29 H          -1.6914   -2.5004    2.3622 H       1  UNL1        0.1921
     30 H          -5.2753    0.3914    1.9554 H       1  UNL1        0.0625
     31 H          -5.6720    2.3487    0.5941 H       1  UNL1        0.0618
     32 H          -3.9946    3.1210   -0.9278 H       1  UNL1        0.0618
     33 H          -1.8862    1.9761   -1.1375 H       1  UNL1        0.0624
     34 H           2.0324    0.7053    0.6663 H       1  UNL1        0.0657
@<TRIPOS>BOND
     1     1     2    2
     2     2     3    1
     3     3     4    1
     4     4     5   ar
     5     4    21   ar
     6     5     6   ar
     7     6     7   ar
     8     7     8   ar
     9     8     9    1
    10     8    21   ar
    11     9    10    1
    12    10    11   ar
    13    10    20   ar
    14    11    12   ar
    15    12    13   ar
    16    13    14    2
    17    13    15   ar
    18    15    16   ar
    19    15    20   ar
    20    16    17   ar
    21    17    18   ar
    22    18    19   ar
    23    19    20   ar
    24     1    22    1
    25     2    23    1
    26     5    24    1
    27     6    25    1
    28     7    26    1
    29     9    27    1
    30     9    28    1
    31    12    29    1
    32    16    30    1
    33    17    31    1
    34    18    32    1
    35    19    33    1
    36    21    34    1
@<TRIPOS>MOLECULE
../data/bude_mols_rdkit_confs2/molecule_59.pdb
 34 36 0 0 0
SMALL
GASTEIGER

@<TRIPOS>ATOM
      1  N1         5.1550    2.7780   -0.3260 N.2     1  UNL1       -0.2466
      2  S1         3.9510    2.2990    0.5240 S.3     1  UNL1        0.0680
      3  O1         3.9090    0.6310    0.8300 O.3     1  UNL1       -0.4186
      4  C1         3.0830   -0.2960    0.2620 C.ar    1  UNL1        0.1393
      5  C2         3.3840   -0.9850   -0.8860 C.ar    1  UNL1       -0.0184
      6  C3         2.4870   -1.9030   -1.3850 C.ar    1  UNL1       -0.0580
      7  C4         1.3030   -2.1200   -0.7300 C.ar    1  UNL1       -0.0580
      8  C5         0.9500   -1.4420    0.4460 C.ar    1  UNL1       -0.0380
      9  C6        -0.3340   -1.7600    1.0990 C.3     1  UNL1        0.0172
     10  C7        -1.5020   -1.2930    0.3430 C.ar    1  UNL1        0.0736
     11  N2        -2.1720   -2.1570   -0.4840 N.ar    1  UNL1       -0.1750
     12  N3        -3.1910   -1.8170   -1.2160 N.ar    1  UNL1       -0.2425
     13  C8        -3.6370   -0.5630   -1.1850 C.ar    1  UNL1        0.2725
     14  O2        -4.6290   -0.1800   -1.8810 O.2     1  UNL1       -0.2658
     15  C9        -3.0380    0.3900   -0.3870 C.ar    1  UNL1        0.0496
     16  C10       -3.5090    1.6910   -0.3470 C.ar    1  UNL1       -0.0487
     17  C11       -2.8910    2.6070    0.4710 C.ar    1  UNL1       -0.0610
     18  C12       -1.8130    2.2640    1.2540 C.ar    1  UNL1       -0.0611
     19  C13       -1.3830    0.9600    1.1780 C.ar    1  UNL1       -0.0521
     20  C14       -1.9520   -0.0030    0.3840 C.ar    1  UNL1        0.0106
     21  C15        1.8620   -0.5470    0.9020 C.ar    1  UNL1       -0.0149
     22 H           5.2523    3.7322   -0.5479 H       1  UNL1        0.1976
     23 H           2.8093    2.6364   -0.1335 H       1  UNL1        0.1591
     24 H           4.2781   -0.8160   -1.3729 H       1  UNL1        0.0654
     25 H           2.7054   -2.4250   -2.2480 H       1  UNL1        0.0619
     26 H           0.6430   -2.8117   -1.1186 H       1  UNL1        0.0620
     27 H          -0.3475   -1.2982    2.0641 H       1  UNL1        0.0377
     28 H          -0.4023   -2.8260    1.1606 H       1  UNL1        0.0377
     29 H          -3.6311   -2.4841   -1.7909 H       1  UNL1        0.1921
     30 H          -4.3164    1.9707   -0.9257 H       1  UNL1        0.0625
     31 H          -3.2446    3.5762    0.4984 H       1  UNL1        0.0618
     32 H          -1.3497    2.9517    1.8684 H       1  UNL1        0.0618
     33 H          -0.5753    0.6867    1.7593 H       1  UNL1        0.0624
     34 H           1.6452   -0.0240    1.7649 H       1  UNL1        0.0657
@<TRIPOS>BOND
     1     1     2    2
     2     2     3    1
     3     3     4    1
     4     4     5   ar
     5     4    21   ar
     6     5     6   ar
     7     6     7   ar
     8     7     8   ar
     9     8     9    1
    10     8    21   ar
    11     9    10    1
    12    10    11   ar
    13    10    20   ar
    14    11    12   ar
    15    12    13   ar
    16    13    14    2
    17    13    15   ar
    18    15    16   ar
    19    15    20   ar
    20    16    17   ar
    21    17    18   ar
    22    18    19   ar
    23    19    20   ar
    24     1    22    1
    25     2    23    1
    26     5    24    1
    27     6    25    1
    28     7    26    1
    29     9    27    1
    30     9    28    1
    31    12    29    1
    32    16    30    1
    33    17    31    1
    34    18    32    1
    35    19    33    1
    36    21    34    1
@<TRIPOS>MOLECULE
../data/bude_mols_rdkit_confs2/molecule_59.pdb
 34 36 0 0 0
SMALL
GASTEIGER

@<TRIPOS>ATOM
      1  N1         4.0830    1.9060   -0.3350 N.2     1  UNL1       -0.2466
      2  S1         4.6730    0.6530    0.4130 S.3     1  UNL1        0.0680
      3  O1         4.2040   -0.8330   -0.2780 O.3     1  UNL1       -0.4186
      4  C1         2.9740   -1.3800   -0.0090 C.ar    1  UNL1        0.1393
      5  C2         2.8560   -2.2230    1.0810 C.ar    1  UNL1       -0.0184
      6  C3         1.6360   -2.7720    1.3550 C.ar    1  UNL1       -0.0580
      7  C4         0.5480   -2.4680    0.5290 C.ar    1  UNL1       -0.0580
      8  C5         0.6600   -1.6370   -0.5460 C.ar    1  UNL1       -0.0380
      9  C6        -0.4790   -1.3090   -1.3990 C.3     1  UNL1        0.0172
     10  C7        -0.9950    0.0630   -1.2930 C.ar    1  UNL1        0.0736
     11  N2        -0.5870    1.0360   -2.1510 N.ar    1  UNL1       -0.1750
     12  N3        -0.9380    2.2810   -2.1200 N.ar    1  UNL1       -0.2425
     13  C8        -1.7920    2.6840   -1.1530 C.ar    1  UNL1        0.2725
     14  O2        -2.1690    3.8950   -1.0750 O.2     1  UNL1       -0.2658
     15  C9        -2.2620    1.7710   -0.2360 C.ar    1  UNL1        0.0496
     16  C10       -3.1440    2.1300    0.7600 C.ar    1  UNL1       -0.0487
     17  C11       -3.6460    1.2340    1.6860 C.ar    1  UNL1       -0.0610
     18  C12       -3.2560   -0.0870    1.6260 C.ar    1  UNL1       -0.0611
     19  C13       -2.3720   -0.4510    0.6300 C.ar    1  UNL1       -0.0521
     20  C14       -1.8590    0.4280   -0.3020 C.ar    1  UNL1        0.0106
     21  C15        1.9120   -1.0750   -0.8250 C.ar    1  UNL1       -0.0149
     22 H           4.2929    2.8135   -0.0163 H       1  UNL1        0.1976
     23 H           4.2461    0.6815    1.7039 H       1  UNL1        0.1591
     24 H           3.6733   -2.4329    1.6752 H       1  UNL1        0.0654
     25 H           1.5177   -3.4040    2.1622 H       1  UNL1        0.0619
     26 H          -0.3708   -2.8873    0.7409 H       1  UNL1        0.0620
     27 H          -1.2764   -1.9778   -1.1504 H       1  UNL1        0.0377
     28 H          -0.1216   -1.4038   -2.4031 H       1  UNL1        0.0377
     29 H          -0.5914    2.9193   -2.7846 H       1  UNL1        0.1921
     30 H          -3.4446    3.1156    0.8177 H       1  UNL1        0.0625
     31 H          -4.3053    1.5507    2.4140 H       1  UNL1        0.0618
     32 H          -3.6127   -0.7800    2.3024 H       1  UNL1        0.0618
     33 H          -2.0774   -1.4388    0.5795 H       1  UNL1        0.0624
     34 H           2.0347   -0.4419   -1.6307 H       1  UNL1        0.0657
@<TRIPOS>BOND
     1     1     2    2
     2     2     3    1
     3     3     4    1
     4     4     5   ar
     5     4    21   ar
     6     5     6   ar
     7     6     7   ar
     8     7     8   ar
     9     8     9    1
    10     8    21   ar
    11     9    10    1
    12    10    11   ar
    13    10    20   ar
    14    11    12   ar
    15    12    13   ar
    16    13    14    2
    17    13    15   ar
    18    15    16   ar
    19    15    20   ar
    20    16    17   ar
    21    17    18   ar
    22    18    19   ar
    23    19    20   ar
    24     1    22    1
    25     2    23    1
    26     5    24    1
    27     6    25    1
    28     7    26    1
    29     9    27    1
    30     9    28    1
    31    12    29    1
    32    16    30    1
    33    17    31    1
    34    18    32    1
    35    19    33    1
    36    21    34    1
@<TRIPOS>MOLECULE
../data/bude_mols_rdkit_confs2/molecule_59.pdb
 34 36 0 0 0
SMALL
GASTEIGER

@<TRIPOS>ATOM
      1  N1         4.6780    3.0930    1.6020 N.2     1  UNL1       -0.2466
      2  S1         3.5010    2.7610    0.5880 S.3     1  UNL1        0.0680
      3  O1         3.9020    1.2880   -0.1950 O.3     1  UNL1       -0.4186
      4  C1         3.1030    0.1730    0.0340 C.ar    1  UNL1        0.1393
      5  C2         3.4270   -0.6620    1.0830 C.ar    1  UNL1       -0.0184
      6  C3         2.6010   -1.7490    1.2620 C.ar    1  UNL1       -0.0580
      7  C4         1.5210   -2.0040    0.4600 C.ar    1  UNL1       -0.0580
      8  C5         1.2130   -1.1390   -0.5990 C.ar    1  UNL1       -0.0380
      9  C6         0.0520   -1.4550   -1.4730 C.3     1  UNL1        0.0172
     10  C7        -1.2610   -1.3080   -0.8120 C.ar    1  UNL1        0.0736
     11  N2        -1.8510   -2.4210   -0.2700 N.ar    1  UNL1       -0.1750
     12  N3        -2.9890   -2.3970    0.3770 N.ar    1  UNL1       -0.2425
     13  C8        -3.6280   -1.2350    0.5290 C.ar    1  UNL1        0.2725
     14  O2        -4.7290   -1.1570    1.1450 O.2     1  UNL1       -0.2658
     15  C9        -3.1400   -0.0450    0.0290 C.ar    1  UNL1        0.0496
     16  C10       -3.8210    1.1450    0.1850 C.ar    1  UNL1       -0.0487
     17  C11       -3.2380    2.2640   -0.3710 C.ar    1  UNL1       -0.0610
     18  C12       -2.0550    2.2300   -1.0450 C.ar    1  UNL1       -0.0611
     19  C13       -1.3900    1.0380   -1.1910 C.ar    1  UNL1       -0.0521
     20  C14       -1.9180   -0.1140   -0.6580 C.ar    1  UNL1        0.0106
     21  C15        2.0140   -0.0530   -0.8020 C.ar    1  UNL1       -0.0149
     22 H           4.6371    3.9071    2.1541 H       1  UNL1        0.1976
     23 H           3.3818    3.7581   -0.3292 H       1  UNL1        0.1591
     24 H           4.2380   -0.4831    1.6956 H       1  UNL1        0.0654
     25 H           2.8052   -2.4009    2.0355 H       1  UNL1        0.0619
     26 H           0.9332   -2.8339    0.6354 H       1  UNL1        0.0620
     27 H           0.1485   -2.4672   -1.8063 H       1  UNL1        0.0377
     28 H           0.0719   -0.7500   -2.2777 H       1  UNL1        0.0377
     29 H          -3.3690   -3.2264    0.7471 H       1  UNL1        0.1921
     30 H          -4.7191    1.1948    0.6910 H       1  UNL1        0.0625
     31 H          -3.7211    3.1705   -0.2717 H       1  UNL1        0.0618
     32 H          -1.6605    3.0961   -1.4440 H       1  UNL1        0.0618
     33 H          -0.4934    1.0066   -1.7010 H       1  UNL1        0.0624
     34 H           1.8122    0.6002   -1.5751 H       1  UNL1        0.0657
@<TRIPOS>BOND
     1     1     2    2
     2     2     3    1
     3     3     4    1
     4     4     5   ar
     5     4    21   ar
     6     5     6   ar
     7     6     7   ar
     8     7     8   ar
     9     8     9    1
    10     8    21   ar
    11     9    10    1
    12    10    11   ar
    13    10    20   ar
    14    11    12   ar
    15    12    13   ar
    16    13    14    2
    17    13    15   ar
    18    15    16   ar
    19    15    20   ar
    20    16    17   ar
    21    17    18   ar
    22    18    19   ar
    23    19    20   ar
    24     1    22    1
    25     2    23    1
    26     5    24    1
    27     6    25    1
    28     7    26    1
    29     9    27    1
    30     9    28    1
    31    12    29    1
    32    16    30    1
    33    17    31    1
    34    18    32    1
    35    19    33    1
    36    21    34    1
@<TRIPOS>MOLECULE
../data/bude_mols_rdkit_confs2/molecule_59.pdb
 34 36 0 0 0
SMALL
GASTEIGER

@<TRIPOS>ATOM
      1  N1         5.4770   -1.6490   -0.2010 N.2     1  UNL1       -0.2466
      2  S1         5.0140   -1.3760   -1.6670 S.3     1  UNL1        0.0680
      3  O1         3.7150   -0.2430   -1.6910 O.3     1  UNL1       -0.4186
      4  C1         2.9410    0.0220   -0.5660 C.ar    1  UNL1        0.1393
      5  C2         3.2970    1.0200    0.3120 C.ar    1  UNL1       -0.0184
      6  C3         2.5750    1.3130    1.4180 C.ar    1  UNL1       -0.0580
      7  C4         1.4230    0.5790    1.6860 C.ar    1  UNL1       -0.0580
      8  C5         1.0070   -0.4230    0.8620 C.ar    1  UNL1       -0.0380
      9  C6        -0.2030   -1.2070    1.1000 C.3     1  UNL1        0.0172
     10  C7        -1.3290   -0.9670    0.2010 C.ar    1  UNL1        0.0736
     11  N2        -1.4740   -1.8360   -0.8460 N.ar    1  UNL1       -0.1750
     12  N3        -2.4290   -1.7040   -1.7450 N.ar    1  UNL1       -0.2425
     13  C8        -3.3270   -0.7030   -1.6930 C.ar    1  UNL1        0.2725
     14  O2        -4.2300   -0.6080   -2.5750 O.2     1  UNL1       -0.2658
     15  C9        -3.2500    0.2070   -0.6740 C.ar    1  UNL1        0.0496
     16  C10       -4.1700    1.2250   -0.6080 C.ar    1  UNL1       -0.0487
     17  C11       -4.0740    2.1210    0.4360 C.ar    1  UNL1       -0.0610
     18  C12       -3.0620    1.9670    1.3790 C.ar    1  UNL1       -0.0611
     19  C13       -2.1510    0.9380    1.2910 C.ar    1  UNL1       -0.0521
     20  C14       -2.2260    0.0470    0.2720 C.ar    1  UNL1        0.0106
     21  C15        1.7980   -0.6780   -0.2670 C.ar    1  UNL1       -0.0149
     22 H           6.2143   -2.2777   -0.0266 H       1  UNL1        0.1976
     23 H           4.6001   -2.5428   -2.2298 H       1  UNL1        0.1591
     24 H           4.1501    1.5677    0.1188 H       1  UNL1        0.0654
     25 H           2.8738    2.0693    2.0534 H       1  UNL1        0.0619
     26 H           0.8706    0.7992    2.5294 H       1  UNL1        0.0620
     27 H          -0.5335   -0.9984    2.0961 H       1  UNL1        0.0377
     28 H           0.0827   -2.2235    0.9268 H       1  UNL1        0.0377
     29 H          -2.4872   -2.3587   -2.4780 H       1  UNL1        0.1921
     30 H          -4.9119    1.3167   -1.3195 H       1  UNL1        0.0625
     31 H          -4.7469    2.8992    0.5173 H       1  UNL1        0.0618
     32 H          -2.9929    2.6377    2.1603 H       1  UNL1        0.0618
     33 H          -1.4093    0.8449    2.0026 H       1  UNL1        0.0624
     34 H           1.5056   -1.4323   -0.9078 H       1  UNL1        0.0657
@<TRIPOS>BOND
     1     1     2    2
     2     2     3    1
     3     3     4    1
     4     4     5   ar
     5     4    21   ar
     6     5     6   ar
     7     6     7   ar
     8     7     8   ar
     9     8     9    1
    10     8    21   ar
    11     9    10    1
    12    10    11   ar
    13    10    20   ar
    14    11    12   ar
    15    12    13   ar
    16    13    14    2
    17    13    15   ar
    18    15    16   ar
    19    15    20   ar
    20    16    17   ar
    21    17    18   ar
    22    18    19   ar
    23    19    20   ar
    24     1    22    1
    25     2    23    1
    26     5    24    1
    27     6    25    1
    28     7    26    1
    29     9    27    1
    30     9    28    1
    31    12    29    1
    32    16    30    1
    33    17    31    1
    34    18    32    1
    35    19    33    1
    36    21    34    1
