@<TRIPOS>MOLECULE
../data/bude_mols_rdkit_confs2/molecule_81.pdb
 47 50 0 0 0
SMALL
GASTEIGER

@<TRIPOS>ATOM
      1  O1         4.4480   -1.8900    0.1630 O.2     1  UNL1       -0.2451
      2  C1         5.4550   -1.1660    0.2840 C.2     1  UNL1        0.3375
      3  O2         6.6130   -1.7900    0.7130 O.3     1  UNL1       -0.4771
      4  C2         5.4710    0.2490   -0.0100 C.ar    1  UNL1        0.0709
      5  C3         6.6880    0.9250    0.1730 C.ar    1  UNL1       -0.0470
      6  C4         6.7870    2.2540   -0.1180 C.ar    1  UNL1       -0.0609
      7  C5         5.6860    2.9350   -0.5950 C.ar    1  UNL1       -0.0610
      8  C6         4.5000    2.2850   -0.7750 C.ar    1  UNL1       -0.0488
      9  C7         4.3880    0.9440   -0.4820 C.ar    1  UNL1        0.0510
     10  C8         3.1020    0.3410   -0.6480 C.2     1  UNL1        0.2490
     11  O3         2.6310    0.4280   -1.8560 O.2     1  UNL1       -0.2698
     12  N1         2.3200   -0.3070    0.3310 N.am    1  UNL1       -0.2815
     13  C9         1.0630   -0.8850   -0.0300 C.ar    1  UNL1        0.0339
     14  C10        0.8800   -1.5080   -1.2540 C.ar    1  UNL1       -0.0405
     15  C11       -0.3360   -2.0430   -1.6150 C.ar    1  UNL1       -0.0597
     16  C12       -1.4230   -1.9620   -0.7380 C.ar    1  UNL1       -0.0581
     17  C13       -1.2950   -1.3610    0.4750 C.ar    1  UNL1       -0.0398
     18  C14       -2.3850   -1.2540    1.4560 C.3     1  UNL1        0.0172
     19  C15       -3.3010   -0.1220    1.3000 C.ar    1  UNL1        0.0736
     20  N2        -3.0020    1.0760    1.8950 N.ar    1  UNL1       -0.1750
     21  N3        -3.7510    2.1490    1.7350 N.ar    1  UNL1       -0.2425
     22  C16       -4.8560    2.1730    0.9880 C.ar    1  UNL1        0.2725
     23  O4        -5.5780    3.1940    0.8280 O.2     1  UNL1       -0.2658
     24  C17       -5.2370    1.0070    0.3470 C.ar    1  UNL1        0.0496
     25  C18       -6.3950    0.9660   -0.4220 C.ar    1  UNL1       -0.0487
     26  C19       -6.7910   -0.2030   -1.0350 C.ar    1  UNL1       -0.0610
     27  C20       -6.0160   -1.3240   -0.8640 C.ar    1  UNL1       -0.0611
     28  C21       -4.8570   -1.2590   -0.0860 C.ar    1  UNL1       -0.0521
     29  C22       -4.4500   -0.1050    0.5240 C.ar    1  UNL1        0.0106
     30  C23       -0.0250   -0.8310    0.7920 C.ar    1  UNL1       -0.0369
     31 H           7.4002   -1.2935    0.8214 H       1  UNL1        0.2954
     32 H           7.5110    0.4143    0.5291 H       1  UNL1        0.0626
     33 H           7.6825    2.7485    0.0182 H       1  UNL1        0.0618
     34 H           5.7598    3.9402   -0.8166 H       1  UNL1        0.0618
     35 H           3.6815    2.8016   -1.1331 H       1  UNL1        0.0625
     36 H           2.6390   -0.3612    1.2608 H       1  UNL1        0.1551
     37 H           1.6738   -1.5725   -1.9104 H       1  UNL1        0.0636
     38 H          -0.4457   -2.5035   -2.5320 H       1  UNL1        0.0618
     39 H          -2.3326   -2.3631   -1.0149 H       1  UNL1        0.0620
     40 H          -1.9414   -1.1808    2.4270 H       1  UNL1        0.0377
     41 H          -2.9866   -2.1257    1.3043 H       1  UNL1        0.0377
     42 H          -3.4800    2.9780    2.1918 H       1  UNL1        0.1921
     43 H          -6.9636    1.8198   -0.5348 H       1  UNL1        0.0625
     44 H          -7.6485   -0.2353   -1.6083 H       1  UNL1        0.0618
     45 H          -6.2894   -2.2137   -1.3098 H       1  UNL1        0.0618
     46 H          -4.2883   -2.1120    0.0323 H       1  UNL1        0.0624
     47 H           0.0882   -0.3710    1.7088 H       1  UNL1        0.0639
@<TRIPOS>BOND
     1     1     2    2
     2     2     3    1
     3     2     4    1
     4     4     5   ar
     5     4     9   ar
     6     5     6   ar
     7     6     7   ar
     8     7     8   ar
     9     8     9   ar
    10     9    10    1
    11    10    11    2
    12    10    12   am
    13    12    13    1
    14    13    14   ar
    15    13    30   ar
    16    14    15   ar
    17    15    16   ar
    18    16    17   ar
    19    17    18    1
    20    17    30   ar
    21    18    19    1
    22    19    20   ar
    23    19    29   ar
    24    20    21   ar
    25    21    22   ar
    26    22    23    2
    27    22    24   ar
    28    24    25   ar
    29    24    29   ar
    30    25    26   ar
    31    26    27   ar
    32    27    28   ar
    33    28    29   ar
    34     3    31    1
    35     5    32    1
    36     6    33    1
    37     7    34    1
    38     8    35    1
    39    12    36    1
    40    14    37    1
    41    15    38    1
    42    16    39    1
    43    18    40    1
    44    18    41    1
    45    21    42    1
    46    25    43    1
    47    26    44    1
    48    27    45    1
    49    28    46    1
    50    30    47    1
@<TRIPOS>MOLECULE
../data/bude_mols_rdkit_confs2/molecule_81.pdb
 47 50 0 0 0
SMALL
GASTEIGER

@<TRIPOS>ATOM
      1  O1         4.4380    3.2610    1.0900 O.2     1  UNL1       -0.2451
      2  C1         4.1560    2.2530    0.3760 C.2     1  UNL1        0.3375
      3  O2         2.8990    2.2180   -0.1690 O.3     1  UNL1       -0.4771
      4  C2         5.1910    1.2450    0.2030 C.ar    1  UNL1        0.0709
      5  C3         6.4980    1.5080    0.6300 C.ar    1  UNL1       -0.0470
      6  C4         7.5410    0.6530    0.3820 C.ar    1  UNL1       -0.0609
      7  C5         7.2710   -0.5060   -0.3170 C.ar    1  UNL1       -0.0610
      8  C6         5.9870   -0.7730   -0.7390 C.ar    1  UNL1       -0.0488
      9  C7         4.9200    0.1020   -0.4810 C.ar    1  UNL1        0.0510
     10  C8         3.6030   -0.3960   -0.8540 C.2     1  UNL1        0.2490
     11  O3         3.4880   -0.8650   -2.0120 O.2     1  UNL1       -0.2698
     12  N1         2.4770   -0.3920   -0.0020 N.am    1  UNL1       -0.2815
     13  C9         1.1800   -0.8590   -0.2890 C.ar    1  UNL1        0.0339
     14  C10        0.8130   -1.6120   -1.3610 C.ar    1  UNL1       -0.0405
     15  C11       -0.4760   -2.0500   -1.5660 C.ar    1  UNL1       -0.0597
     16  C12       -1.4490   -1.7030   -0.6270 C.ar    1  UNL1       -0.0581
     17  C13       -1.1450   -0.9470    0.4720 C.ar    1  UNL1       -0.0398
     18  C14       -2.1370   -0.5800    1.4990 C.3     1  UNL1        0.0172
     19  C15       -3.2190    0.3090    1.0670 C.ar    1  UNL1        0.0736
     20  N2        -3.0420    1.6680    1.0900 N.ar    1  UNL1       -0.1750
     21  N3        -3.9300    2.5150    0.6550 N.ar    1  UNL1       -0.2425
     22  C16       -5.1120    2.1330    0.1400 C.ar    1  UNL1        0.2725
     23  O4        -5.9640    2.9630   -0.2800 O.2     1  UNL1       -0.2658
     24  C17       -5.3880    0.7990    0.0750 C.ar    1  UNL1        0.0496
     25  C18       -6.6100    0.3530   -0.4240 C.ar    1  UNL1       -0.0487
     26  C19       -6.9010   -0.9840   -0.4620 C.ar    1  UNL1       -0.0610
     27  C20       -5.9400   -1.8680    0.0100 C.ar    1  UNL1       -0.0611
     28  C21       -4.7310   -1.4270    0.5010 C.ar    1  UNL1       -0.0521
     29  C22       -4.4320   -0.0980    0.5420 C.ar    1  UNL1        0.0106
     30  C23        0.1860   -0.5350    0.6170 C.ar    1  UNL1       -0.0369
     31 H           2.6407    1.4941   -0.7050 H       1  UNL1        0.2954
     32 H           6.6837    2.3789    1.1515 H       1  UNL1        0.0626
     33 H           8.4963    0.8690    0.7073 H       1  UNL1        0.0618
     34 H           8.0311   -1.1728   -0.5236 H       1  UNL1        0.0618
     35 H           5.8038   -1.6439   -1.2614 H       1  UNL1        0.0625
     36 H           2.6150   -0.0188    0.8985 H       1  UNL1        0.1551
     37 H           1.5348   -1.8669   -2.0531 H       1  UNL1        0.0636
     38 H          -0.7166   -2.6198   -2.3921 H       1  UNL1        0.0618
     39 H          -2.4200   -2.0242   -0.7650 H       1  UNL1        0.0620
     40 H          -1.6155   -0.0950    2.2976 H       1  UNL1        0.0377
     41 H          -2.6140   -1.4969    1.7761 H       1  UNL1        0.0377
     42 H          -3.7273    3.4771    0.7053 H       1  UNL1        0.1921
     43 H          -7.3020    1.0369   -0.7681 H       1  UNL1        0.0625
     44 H          -7.8039   -1.3234   -0.8290 H       1  UNL1        0.0618
     45 H          -6.1365   -2.8810   -0.0075 H       1  UNL1        0.0618
     46 H          -4.0408   -2.1137    0.8432 H       1  UNL1        0.0624
     47 H           0.4369    0.0372    1.4384 H       1  UNL1        0.0639
@<TRIPOS>BOND
     1     1     2    2
     2     2     3    1
     3     2     4    1
     4     4     5   ar
     5     4     9   ar
     6     5     6   ar
     7     6     7   ar
     8     7     8   ar
     9     8     9   ar
    10     9    10    1
    11    10    11    2
    12    10    12   am
    13    12    13    1
    14    13    14   ar
    15    13    30   ar
    16    14    15   ar
    17    15    16   ar
    18    16    17   ar
    19    17    18    1
    20    17    30   ar
    21    18    19    1
    22    19    20   ar
    23    19    29   ar
    24    20    21   ar
    25    21    22   ar
    26    22    23    2
    27    22    24   ar
    28    24    25   ar
    29    24    29   ar
    30    25    26   ar
    31    26    27   ar
    32    27    28   ar
    33    28    29   ar
    34     3    31    1
    35     5    32    1
    36     6    33    1
    37     7    34    1
    38     8    35    1
    39    12    36    1
    40    14    37    1
    41    15    38    1
    42    16    39    1
    43    18    40    1
    44    18    41    1
    45    21    42    1
    46    25    43    1
    47    26    44    1
    48    27    45    1
    49    28    46    1
    50    30    47    1
@<TRIPOS>MOLECULE
../data/bude_mols_rdkit_confs2/molecule_81.pdb
 47 50 0 0 0
SMALL
GASTEIGER

@<TRIPOS>ATOM
      1  O1         4.7510   -1.8500    1.1320 O.2     1  UNL1       -0.2451
      2  C1         5.8410   -1.2710    0.9250 C.2     1  UNL1        0.3375
      3  O2         7.0100   -1.7840    1.5010 O.3     1  UNL1       -0.4771
      4  C2         5.8700   -0.0830    0.0940 C.ar    1  UNL1        0.0709
      5  C3         7.0940    0.5690   -0.0480 C.ar    1  UNL1       -0.0470
      6  C4         7.2070    1.7210   -0.7900 C.ar    1  UNL1       -0.0609
      7  C5         6.0910    2.2580   -1.4190 C.ar    1  UNL1       -0.0610
      8  C6         4.8870    1.5930   -1.2650 C.ar    1  UNL1       -0.0488
      9  C7         4.7600    0.4310   -0.5190 C.ar    1  UNL1        0.0510
     10  C8         3.4460   -0.1950   -0.4160 C.2     1  UNL1        0.2490
     11  O3         3.2900   -1.3570   -0.9290 O.2     1  UNL1       -0.2698
     12  N1         2.3630    0.4320    0.2200 N.am    1  UNL1       -0.2815
     13  C9         1.0700   -0.1300    0.3580 C.ar    1  UNL1        0.0339
     14  C10        0.8540   -1.4950    0.4620 C.ar    1  UNL1       -0.0405
     15  C11       -0.4130   -2.0030    0.5750 C.ar    1  UNL1       -0.0597
     16  C12       -1.5110   -1.1580    0.5850 C.ar    1  UNL1       -0.0581
     17  C13       -1.3660    0.1940    0.4860 C.ar    1  UNL1       -0.0398
     18  C14       -2.4740    1.1800    0.5280 C.3     1  UNL1        0.0172
     19  C15       -3.6190    0.9250   -0.3220 C.ar    1  UNL1        0.0736
     20  N2        -3.6530    1.4170   -1.5900 N.ar    1  UNL1       -0.1750
     21  N3        -4.6590    1.1750   -2.4040 N.ar    1  UNL1       -0.2425
     22  C16       -5.7350    0.4120   -2.0270 C.ar    1  UNL1        0.2725
     23  O4        -6.6550    0.2260   -2.8600 O.2     1  UNL1       -0.2658
     24  C17       -5.7660   -0.1130   -0.7640 C.ar    1  UNL1        0.0496
     25  C18       -6.8590   -0.8590   -0.3590 C.ar    1  UNL1       -0.0487
     26  C19       -6.8780   -1.3470    0.9280 C.ar    1  UNL1       -0.0610
     27  C20       -5.7980   -1.0760    1.7810 C.ar    1  UNL1       -0.0611
     28  C21       -4.7430   -0.3440    1.3520 C.ar    1  UNL1       -0.0521
     29  C22       -4.6810    0.1640    0.0750 C.ar    1  UNL1        0.0106
     30  C23       -0.0420    0.6570    0.3740 C.ar    1  UNL1       -0.0369
     31 H           7.8313   -1.3582    1.3524 H       1  UNL1        0.2954
     32 H           7.9313    0.1795    0.4126 H       1  UNL1        0.0626
     33 H           8.1230    2.1878   -0.8798 H       1  UNL1        0.0618
     34 H           6.1572    3.1213   -1.9806 H       1  UNL1        0.0618
     35 H           4.0476    1.9785   -1.7252 H       1  UNL1        0.0625
     36 H           2.5131    1.3285    0.5981 H       1  UNL1        0.1551
     37 H           1.6605   -2.1388    0.4542 H       1  UNL1        0.0636
     38 H          -0.5508   -3.0228    0.6533 H       1  UNL1        0.0618
     39 H          -2.4577   -1.5601    0.6691 H       1  UNL1        0.0620
     40 H          -2.0701    2.1304    0.2476 H       1  UNL1        0.0377
     41 H          -2.8541    1.1258    1.5267 H       1  UNL1        0.0377
     42 H          -4.6385    1.5538   -3.3125 H       1  UNL1        0.1921
     43 H          -7.6410   -1.0450   -1.0063 H       1  UNL1        0.0625
     44 H          -7.6785   -1.9064    1.2618 H       1  UNL1        0.0618
     45 H          -5.8077   -1.4389    2.7470 H       1  UNL1        0.0618
     46 H          -3.9624   -0.1617    2.0020 H       1  UNL1        0.0624
     47 H           0.0983    1.6766    0.2977 H       1  UNL1        0.0639
@<TRIPOS>BOND
     1     1     2    2
     2     2     3    1
     3     2     4    1
     4     4     5   ar
     5     4     9   ar
     6     5     6   ar
     7     6     7   ar
     8     7     8   ar
     9     8     9   ar
    10     9    10    1
    11    10    11    2
    12    10    12   am
    13    12    13    1
    14    13    14   ar
    15    13    30   ar
    16    14    15   ar
    17    15    16   ar
    18    16    17   ar
    19    17    18    1
    20    17    30   ar
    21    18    19    1
    22    19    20   ar
    23    19    29   ar
    24    20    21   ar
    25    21    22   ar
    26    22    23    2
    27    22    24   ar
    28    24    25   ar
    29    24    29   ar
    30    25    26   ar
    31    26    27   ar
    32    27    28   ar
    33    28    29   ar
    34     3    31    1
    35     5    32    1
    36     6    33    1
    37     7    34    1
    38     8    35    1
    39    12    36    1
    40    14    37    1
    41    15    38    1
    42    16    39    1
    43    18    40    1
    44    18    41    1
    45    21    42    1
    46    25    43    1
    47    26    44    1
    48    27    45    1
    49    28    46    1
    50    30    47    1
@<TRIPOS>MOLECULE
../data/bude_mols_rdkit_confs2/molecule_81.pdb
 47 50 0 0 0
SMALL
GASTEIGER

@<TRIPOS>ATOM
      1  O1        -6.7250   -1.7180   -0.1730 O.2     1  UNL1       -0.2451
      2  C1        -5.6220   -1.2330    0.1690 C.2     1  UNL1        0.3375
      3  O2        -4.4850   -2.0150    0.0740 O.3     1  UNL1       -0.4771
      4  C2        -5.5270    0.1590    0.6680 C.ar    1  UNL1        0.0709
      5  C3        -6.6710    0.9290    0.7280 C.ar    1  UNL1       -0.0470
      6  C4        -6.6100    2.2420    1.2100 C.ar    1  UNL1       -0.0609
      7  C5        -5.4240    2.7880    1.6290 C.ar    1  UNL1       -0.0610
      8  C6        -4.2890    2.0110    1.5640 C.ar    1  UNL1       -0.0488
      9  C7        -4.3410    0.6960    1.0830 C.ar    1  UNL1        0.0510
     10  C8        -3.0910   -0.0470    0.9720 C.2     1  UNL1        0.2490
     11  O3        -2.7550   -0.7960    1.9330 O.2     1  UNL1       -0.2698
     12  N1        -2.2630    0.0660   -0.1720 N.am    1  UNL1       -0.2815
     13  C9        -1.0340   -0.6000   -0.3910 C.ar    1  UNL1        0.0339
     14  C10       -0.6970   -1.7790    0.1880 C.ar    1  UNL1       -0.0405
     15  C11        0.5100   -2.4090    0.0130 C.ar    1  UNL1       -0.0597
     16  C12        1.4430   -1.7840   -0.8170 C.ar    1  UNL1       -0.0581
     17  C13        1.1580   -0.5860   -1.4320 C.ar    1  UNL1       -0.0398
     18  C14        2.1960    0.0530   -2.2790 C.3     1  UNL1        0.0172
     19  C15        3.5850   -0.2210   -1.8450 C.ar    1  UNL1        0.0736
     20  N2         4.4060   -0.8900   -2.6600 N.ar    1  UNL1       -0.1750
     21  N3         5.6720   -1.1360   -2.4090 N.ar    1  UNL1       -0.2425
     22  C16        6.2540   -0.7140   -1.2630 C.ar    1  UNL1        0.2725
     23  O4         7.4560   -0.9390   -1.0130 O.2     1  UNL1       -0.2658
     24  C17        5.4450   -0.0170   -0.3840 C.ar    1  UNL1        0.0496
     25  C18        6.0110    0.4090    0.8180 C.ar    1  UNL1       -0.0487
     26  C19        5.2250    1.0760    1.7060 C.ar    1  UNL1       -0.0610
     27  C20        3.8860    1.3290    1.4260 C.ar    1  UNL1       -0.0611
     28  C21        3.3130    0.9070    0.2280 C.ar    1  UNL1       -0.0521
     29  C22        4.1050    0.2410   -0.6560 C.ar    1  UNL1        0.0106
     30  C23       -0.0730    0.0100   -1.2260 C.ar    1  UNL1       -0.0369
     31 H          -3.6533   -1.6650    0.3264 H       1  UNL1        0.2954
     32 H          -7.5731    0.5360    0.4169 H       1  UNL1        0.0626
     33 H          -7.4718    2.8083    1.2506 H       1  UNL1        0.0618
     34 H          -5.3831    3.7562    1.9839 H       1  UNL1        0.0618
     35 H          -3.3863    2.4032    1.8743 H       1  UNL1        0.0625
     36 H          -2.5739    0.6682   -0.8861 H       1  UNL1        0.1551
     37 H          -1.3934   -2.2322    0.8001 H       1  UNL1        0.0636
     38 H           0.7193   -3.3074    0.4757 H       1  UNL1        0.0618
     39 H           2.3617   -2.2278   -0.9719 H       1  UNL1        0.0620
     40 H           2.0407    1.1115   -2.2593 H       1  UNL1        0.0377
     41 H           2.0921   -0.3624   -3.2596 H       1  UNL1        0.0377
     42 H           6.2068   -1.6365   -3.0668 H       1  UNL1        0.1921
     43 H           7.0038    0.2223    1.0289 H       1  UNL1        0.0625
     44 H           5.6277    1.3987    2.5997 H       1  UNL1        0.0618
     45 H           3.3091    1.8363    2.1151 H       1  UNL1        0.0618
     46 H           2.3200    1.0935    0.0178 H       1  UNL1        0.0624
     47 H          -0.2907    0.9076   -1.6863 H       1  UNL1        0.0639
@<TRIPOS>BOND
     1     1     2    2
     2     2     3    1
     3     2     4    1
     4     4     5   ar
     5     4     9   ar
     6     5     6   ar
     7     6     7   ar
     8     7     8   ar
     9     8     9   ar
    10     9    10    1
    11    10    11    2
    12    10    12   am
    13    12    13    1
    14    13    14   ar
    15    13    30   ar
    16    14    15   ar
    17    15    16   ar
    18    16    17   ar
    19    17    18    1
    20    17    30   ar
    21    18    19    1
    22    19    20   ar
    23    19    29   ar
    24    20    21   ar
    25    21    22   ar
    26    22    23    2
    27    22    24   ar
    28    24    25   ar
    29    24    29   ar
    30    25    26   ar
    31    26    27   ar
    32    27    28   ar
    33    28    29   ar
    34     3    31    1
    35     5    32    1
    36     6    33    1
    37     7    34    1
    38     8    35    1
    39    12    36    1
    40    14    37    1
    41    15    38    1
    42    16    39    1
    43    18    40    1
    44    18    41    1
    45    21    42    1
    46    25    43    1
    47    26    44    1
    48    27    45    1
    49    28    46    1
    50    30    47    1
@<TRIPOS>MOLECULE
../data/bude_mols_rdkit_confs2/molecule_81.pdb
 47 50 0 0 0
SMALL
GASTEIGER

@<TRIPOS>ATOM
      1  O1         6.0680   -1.3910    1.8790 O.2     1  UNL1       -0.2451
      2  C1         5.1790   -1.0550    1.0200 C.2     1  UNL1        0.3375
      3  O2         3.9020   -1.3960    1.3400 O.3     1  UNL1       -0.4771
      4  C2         5.6150   -0.3670   -0.1850 C.ar    1  UNL1        0.0709
      5  C3         6.9950   -0.2800   -0.4480 C.ar    1  UNL1       -0.0470
      6  C4         7.4270    0.2580   -1.6380 C.ar    1  UNL1       -0.0609
      7  C5         6.5290    0.7080   -2.5650 C.ar    1  UNL1       -0.0610
      8  C6         5.1740    0.6180   -2.2900 C.ar    1  UNL1       -0.0488
      9  C7         4.7010    0.0760   -1.0850 C.ar    1  UNL1        0.0510
     10  C8         3.2680    0.1770   -0.9010 C.2     1  UNL1        0.2490
     11  O3         2.5500   -0.2000   -1.8910 O.2     1  UNL1       -0.2698
     12  N1         2.5890    0.6490    0.2330 N.am    1  UNL1       -0.2815
     13  C9         1.1980    0.7490    0.4450 C.ar    1  UNL1        0.0339
     14  C10        0.7690    1.4560    1.5770 C.ar    1  UNL1       -0.0405
     15  C11       -0.5660    1.6220    1.8760 C.ar    1  UNL1       -0.0597
     16  C12       -1.5580    1.0820    1.0470 C.ar    1  UNL1       -0.0581
     17  C13       -1.1760    0.3890   -0.0620 C.ar    1  UNL1       -0.0398
     18  C14       -2.1270   -0.1830   -1.0350 C.3     1  UNL1        0.0172
     19  C15       -3.2800   -0.8990   -0.5100 C.ar    1  UNL1        0.0736
     20  N2        -3.2460   -2.2470   -0.2650 N.ar    1  UNL1       -0.1750
     21  N3        -4.2380   -2.9210    0.2390 N.ar    1  UNL1       -0.2425
     22  C16       -5.3970   -2.3530    0.5690 C.ar    1  UNL1        0.2725
     23  O4        -6.3820   -2.9680    1.0610 O.2     1  UNL1       -0.2658
     24  C17       -5.5430   -0.9990    0.3650 C.ar    1  UNL1        0.0496
     25  C18       -6.7460   -0.3760    0.6720 C.ar    1  UNL1       -0.0487
     26  C19       -6.8510    0.9800    0.4210 C.ar    1  UNL1       -0.0610
     27  C20       -5.8030    1.6950   -0.1150 C.ar    1  UNL1       -0.0611
     28  C21       -4.6120    1.0740   -0.4170 C.ar    1  UNL1       -0.0521
     29  C22       -4.4860   -0.2750   -0.1740 C.ar    1  UNL1        0.0106
     30  C23        0.2060    0.2420   -0.3310 C.ar    1  UNL1       -0.0369
     31 H           3.1999   -1.1816    0.7577 H       1  UNL1        0.2954
     32 H           7.6784   -0.6177    0.2476 H       1  UNL1        0.0626
     33 H           8.4384    0.3225   -1.8327 H       1  UNL1        0.0618
     34 H           6.8558    1.1094   -3.4578 H       1  UNL1        0.0618
     35 H           4.4953    0.9582   -2.9891 H       1  UNL1        0.0625
     36 H           3.1580    0.9497    0.9780 H       1  UNL1        0.1551
     37 H           1.4762    1.8656    2.2072 H       1  UNL1        0.0636
     38 H          -0.8380    2.1500    2.7200 H       1  UNL1        0.0618
     39 H          -2.5575    1.2066    1.2718 H       1  UNL1        0.0620
     40 H          -1.5811   -0.8648   -1.6531 H       1  UNL1        0.0377
     41 H          -2.5408    0.6644   -1.5405 H       1  UNL1        0.0377
     42 H          -4.1279   -3.8888    0.3822 H       1  UNL1        0.1921
     43 H          -7.5345   -0.9069    1.0737 H       1  UNL1        0.0625
     44 H          -7.7342    1.4668    0.6402 H       1  UNL1        0.0618
     45 H          -5.9115    2.7059   -0.2919 H       1  UNL1        0.0618
     46 H          -3.8273    1.6106   -0.8186 H       1  UNL1        0.0624
     47 H           0.4780   -0.2866   -1.1745 H       1  UNL1        0.0639
@<TRIPOS>BOND
     1     1     2    2
     2     2     3    1
     3     2     4    1
     4     4     5   ar
     5     4     9   ar
     6     5     6   ar
     7     6     7   ar
     8     7     8   ar
     9     8     9   ar
    10     9    10    1
    11    10    11    2
    12    10    12   am
    13    12    13    1
    14    13    14   ar
    15    13    30   ar
    16    14    15   ar
    17    15    16   ar
    18    16    17   ar
    19    17    18    1
    20    17    30   ar
    21    18    19    1
    22    19    20   ar
    23    19    29   ar
    24    20    21   ar
    25    21    22   ar
    26    22    23    2
    27    22    24   ar
    28    24    25   ar
    29    24    29   ar
    30    25    26   ar
    31    26    27   ar
    32    27    28   ar
    33    28    29   ar
    34     3    31    1
    35     5    32    1
    36     6    33    1
    37     7    34    1
    38     8    35    1
    39    12    36    1
    40    14    37    1
    41    15    38    1
    42    16    39    1
    43    18    40    1
    44    18    41    1
    45    21    42    1
    46    25    43    1
    47    26    44    1
    48    27    45    1
    49    28    46    1
    50    30    47    1
@<TRIPOS>MOLECULE
../data/bude_mols_rdkit_confs2/molecule_81.pdb
 47 50 0 0 0
SMALL
GASTEIGER

@<TRIPOS>ATOM
      1  O1        -3.6280    1.7700    0.2330 O.2     1  UNL1       -0.2451
      2  C1        -4.7240    1.6170   -0.4390 C.2     1  UNL1        0.3375
      3  O2        -5.0900    2.7210   -1.1460 O.3     1  UNL1       -0.4771
      4  C2        -5.3790    0.3480   -0.3450 C.ar    1  UNL1        0.0709
      5  C3        -6.6590    0.1930   -0.8890 C.ar    1  UNL1       -0.0470
      6  C4        -7.3460   -0.9720   -0.7180 C.ar    1  UNL1       -0.0609
      7  C5        -6.8240   -2.0560   -0.0070 C.ar    1  UNL1       -0.0610
      8  C6        -5.5700   -1.9160    0.5290 C.ar    1  UNL1       -0.0488
      9  C7        -4.8730   -0.7150    0.3470 C.ar    1  UNL1        0.0510
     10  C8        -3.4960   -0.7330    0.9040 C.2     1  UNL1        0.2490
     11  O3        -3.3550   -1.0040    2.1240 O.2     1  UNL1       -0.2698
     12  N1        -2.4250   -0.4520    0.0530 N.am    1  UNL1       -0.2815
     13  C9        -1.0580   -0.3900    0.4480 C.ar    1  UNL1        0.0339
     14  C10       -0.6850   -0.3460    1.7610 C.ar    1  UNL1       -0.0405
     15  C11        0.6530   -0.2440    2.0780 C.ar    1  UNL1       -0.0597
     16  C12        1.5890   -0.1910    1.0560 C.ar    1  UNL1       -0.0581
     17  C13        1.2590   -0.2360   -0.2590 C.ar    1  UNL1       -0.0398
     18  C14        2.2450   -0.2350   -1.3590 C.3     1  UNL1        0.0172
     19  C15        3.4100    0.5650   -1.0300 C.ar    1  UNL1        0.0736
     20  N2         3.3900    1.8880   -1.4050 N.ar    1  UNL1       -0.1750
     21  N3         4.3530    2.7220   -1.1210 N.ar    1  UNL1       -0.2425
     22  C16        5.4110    2.2920   -0.4420 C.ar    1  UNL1        0.2725
     23  O4         6.3400    3.1060   -0.1730 O.2     1  UNL1       -0.2658
     24  C17        5.5100    0.9870   -0.0330 C.ar    1  UNL1        0.0496
     25  C18        6.6150    0.5260    0.6630 C.ar    1  UNL1       -0.0487
     26  C19        6.6760   -0.8120    1.0400 C.ar    1  UNL1       -0.0610
     27  C20        5.6580   -1.6800    0.7320 C.ar    1  UNL1       -0.0611
     28  C21        4.5450   -1.2230    0.0350 C.ar    1  UNL1       -0.0521
     29  C22        4.5050    0.1030   -0.3230 C.ar    1  UNL1        0.0106
     30  C23       -0.1070   -0.3370   -0.5460 C.ar    1  UNL1       -0.0369
     31 H          -5.8704    2.7079   -1.6645 H       1  UNL1        0.2954
     32 H          -7.0858    0.9659   -1.4233 H       1  UNL1        0.0626
     33 H          -8.2885   -1.0568   -1.1297 H       1  UNL1        0.0618
     34 H          -7.3621   -2.9288    0.1101 H       1  UNL1        0.0618
     35 H          -5.1430   -2.6895    1.0624 H       1  UNL1        0.0625
     36 H          -2.6312   -0.2834   -0.8948 H       1  UNL1        0.1551
     37 H          -1.3964   -0.3886    2.5074 H       1  UNL1        0.0636
     38 H           0.9545   -0.2075    3.0643 H       1  UNL1        0.0618
     39 H           2.5866   -0.1134    1.3086 H       1  UNL1        0.0620
     40 H           1.7848    0.1663   -2.2377 H       1  UNL1        0.0377
     41 H           2.5657   -1.2426   -1.5225 H       1  UNL1        0.0377
     42 H           4.2959    3.6621   -1.4076 H       1  UNL1        0.1921
     43 H           7.3864    1.1692    0.9000 H       1  UNL1        0.0625
     44 H           7.4987   -1.1570    1.5588 H       1  UNL1        0.0618
     45 H           5.7187   -2.6699    1.0173 H       1  UNL1        0.0618
     46 H           3.7711   -1.8615   -0.2065 H       1  UNL1        0.0624
     47 H          -0.4103   -0.3728   -1.5318 H       1  UNL1        0.0639
@<TRIPOS>BOND
     1     1     2    2
     2     2     3    1
     3     2     4    1
     4     4     5   ar
     5     4     9   ar
     6     5     6   ar
     7     6     7   ar
     8     7     8   ar
     9     8     9   ar
    10     9    10    1
    11    10    11    2
    12    10    12   am
    13    12    13    1
    14    13    14   ar
    15    13    30   ar
    16    14    15   ar
    17    15    16   ar
    18    16    17   ar
    19    17    18    1
    20    17    30   ar
    21    18    19    1
    22    19    20   ar
    23    19    29   ar
    24    20    21   ar
    25    21    22   ar
    26    22    23    2
    27    22    24   ar
    28    24    25   ar
    29    24    29   ar
    30    25    26   ar
    31    26    27   ar
    32    27    28   ar
    33    28    29   ar
    34     3    31    1
    35     5    32    1
    36     6    33    1
    37     7    34    1
    38     8    35    1
    39    12    36    1
    40    14    37    1
    41    15    38    1
    42    16    39    1
    43    18    40    1
    44    18    41    1
    45    21    42    1
    46    25    43    1
    47    26    44    1
    48    27    45    1
    49    28    46    1
    50    30    47    1
@<TRIPOS>MOLECULE
../data/bude_mols_rdkit_confs2/molecule_81.pdb
 47 50 0 0 0
SMALL
GASTEIGER

@<TRIPOS>ATOM
      1  O1         4.4100    0.9270    1.1000 O.2     1  UNL1       -0.2451
      2  C1         5.4000    0.3600    0.5870 C.2     1  UNL1        0.3375
      3  O2         6.5260    0.2650    1.3920 O.3     1  UNL1       -0.4771
      4  C2         5.4040   -0.1720   -0.7660 C.ar    1  UNL1        0.0709
      5  C3         6.6190   -0.6630   -1.2650 C.ar    1  UNL1       -0.0470
      6  C4         6.7660   -1.0990   -2.5560 C.ar    1  UNL1       -0.0609
      7  C5         5.6240   -1.0240   -3.3440 C.ar    1  UNL1       -0.0610
      8  C6         4.4270   -0.5590   -2.9010 C.ar    1  UNL1       -0.0488
      9  C7         4.3090   -0.1210   -1.5760 C.ar    1  UNL1        0.0510
     10  C8         3.0140    0.2780   -1.0510 C.2     1  UNL1        0.2490
     11  O3         2.3730    1.2330   -1.6640 O.2     1  UNL1       -0.2698
     12  N1         2.3490   -0.2590    0.0550 N.am    1  UNL1       -0.2815
     13  C9         1.1120    0.1140    0.6170 C.ar    1  UNL1        0.0339
     14  C10        0.9880    1.3330    1.2590 C.ar    1  UNL1       -0.0405
     15  C11       -0.1930    1.7250    1.8600 C.ar    1  UNL1       -0.0597
     16  C12       -1.2880    0.8730    1.8210 C.ar    1  UNL1       -0.0581
     17  C13       -1.2140   -0.3480    1.1950 C.ar    1  UNL1       -0.0398
     18  C14       -2.3190   -1.3100    1.1850 C.3     1  UNL1        0.0172
     19  C15       -3.6340   -0.6540    1.3590 C.ar    1  UNL1        0.0736
     20  N2        -4.2390   -0.6730    2.5940 N.ar    1  UNL1       -0.1750
     21  N3        -5.4030   -0.1310    2.8380 N.ar    1  UNL1       -0.2425
     22  C16       -6.0940    0.4870    1.8850 C.ar    1  UNL1        0.2725
     23  O4        -7.2190    1.0090    2.1270 O.2     1  UNL1       -0.2658
     24  C17       -5.5630    0.5560    0.6050 C.ar    1  UNL1        0.0496
     25  C18       -6.3030    1.1850   -0.3890 C.ar    1  UNL1       -0.0487
     26  C19       -5.7770    1.2270   -1.6550 C.ar    1  UNL1       -0.0610
     27  C20       -4.5350    0.6450   -1.8970 C.ar    1  UNL1       -0.0611
     28  C21       -3.8010    0.0200   -0.9040 C.ar    1  UNL1       -0.0521
     29  C22       -4.3400   -0.0170    0.3660 C.ar    1  UNL1        0.0106
     30  C23        0.0140   -0.7010    0.5940 C.ar    1  UNL1       -0.0369
     31 H           7.3011   -0.1488    1.0665 H       1  UNL1        0.2954
     32 H           7.4354   -0.6974   -0.6347 H       1  UNL1        0.0626
     33 H           7.6632   -1.4583   -2.9180 H       1  UNL1        0.0618
     34 H           5.6891   -1.3404   -4.3241 H       1  UNL1        0.0618
     35 H           3.6128   -0.5288   -3.5344 H       1  UNL1        0.0625
     36 H           2.8103   -1.0033    0.5050 H       1  UNL1        0.1551
     37 H           1.8009    1.9680    1.2900 H       1  UNL1        0.0636
     38 H          -0.2600    2.6402    2.3321 H       1  UNL1        0.0618
     39 H          -2.1718    1.1611    2.2693 H       1  UNL1        0.0620
     40 H          -2.1745   -2.0088    1.9823 H       1  UNL1        0.0377
     41 H          -2.3197   -1.7990    0.2333 H       1  UNL1        0.0377
     42 H          -5.7764   -0.1815    3.7476 H       1  UNL1        0.1921
     43 H          -7.2210    1.6079   -0.1808 H       1  UNL1        0.0625
     44 H          -6.2961    1.6851   -2.4203 H       1  UNL1        0.0618
     45 H          -4.1474    0.6812   -2.8528 H       1  UNL1        0.0618
     46 H          -2.8821   -0.4039   -1.1063 H       1  UNL1        0.0624
     47 H           0.0861   -1.6132    0.1169 H       1  UNL1        0.0639
@<TRIPOS>BOND
     1     1     2    2
     2     2     3    1
     3     2     4    1
     4     4     5   ar
     5     4     9   ar
     6     5     6   ar
     7     6     7   ar
     8     7     8   ar
     9     8     9   ar
    10     9    10    1
    11    10    11    2
    12    10    12   am
    13    12    13    1
    14    13    14   ar
    15    13    30   ar
    16    14    15   ar
    17    15    16   ar
    18    16    17   ar
    19    17    18    1
    20    17    30   ar
    21    18    19    1
    22    19    20   ar
    23    19    29   ar
    24    20    21   ar
    25    21    22   ar
    26    22    23    2
    27    22    24   ar
    28    24    25   ar
    29    24    29   ar
    30    25    26   ar
    31    26    27   ar
    32    27    28   ar
    33    28    29   ar
    34     3    31    1
    35     5    32    1
    36     6    33    1
    37     7    34    1
    38     8    35    1
    39    12    36    1
    40    14    37    1
    41    15    38    1
    42    16    39    1
    43    18    40    1
    44    18    41    1
    45    21    42    1
    46    25    43    1
    47    26    44    1
    48    27    45    1
    49    28    46    1
    50    30    47    1
@<TRIPOS>MOLECULE
../data/bude_mols_rdkit_confs2/molecule_81.pdb
 47 50 0 0 0
SMALL
GASTEIGER

@<TRIPOS>ATOM
      1  O1        -5.9780   -0.6710    2.4220 O.2     1  UNL1       -0.2451
      2  C1        -5.2040   -0.6450    1.3920 C.2     1  UNL1        0.3375
      3  O2        -4.2130   -1.5740    1.2940 O.3     1  UNL1       -0.4771
      4  C2        -5.4260    0.3680    0.3770 C.ar    1  UNL1        0.0709
      5  C3        -6.6100    1.1340    0.5150 C.ar    1  UNL1       -0.0470
      6  C4        -6.9810    2.0400   -0.4280 C.ar    1  UNL1       -0.0609
      7  C5        -6.1890    2.2090   -1.5270 C.ar    1  UNL1       -0.0610
      8  C6        -5.0380    1.4790   -1.6750 C.ar    1  UNL1       -0.0488
      9  C7        -4.6420    0.5420   -0.7130 C.ar    1  UNL1        0.0510
     10  C8        -3.3610   -0.1050   -0.8980 C.2     1  UNL1        0.2490
     11  O3        -3.1290   -0.6380   -2.0640 O.2     1  UNL1       -0.2698
     12  N1        -2.3270   -0.2180    0.0430 N.am    1  UNL1       -0.2815
     13  C9        -1.0800   -0.8840   -0.1610 C.ar    1  UNL1        0.0339
     14  C10       -0.8900   -1.8040   -1.1460 C.ar    1  UNL1       -0.0405
     15  C11        0.3240   -2.4060   -1.2970 C.ar    1  UNL1       -0.0597
     16  C12        1.3800   -2.0870   -0.4490 C.ar    1  UNL1       -0.0581
     17  C13        1.2570   -1.1790    0.5530 C.ar    1  UNL1       -0.0398
     18  C14        2.3460   -0.8630    1.4840 C.3     1  UNL1        0.0172
     19  C15        3.2810    0.1980    1.1400 C.ar    1  UNL1        0.0736
     20  N2         3.0170    1.4930    1.5280 N.ar    1  UNL1       -0.1750
     21  N3         3.7820    2.5120    1.2160 N.ar    1  UNL1       -0.2425
     22  C16        4.9010    2.4120    0.4890 C.ar    1  UNL1        0.2725
     23  O4         5.6330    3.3950    0.1920 O.2     1  UNL1       -0.2658
     24  C17        5.2490    1.1460    0.0530 C.ar    1  UNL1        0.0496
     25  C18        6.4150    0.9520   -0.6900 C.ar    1  UNL1       -0.0487
     26  C19        6.7610   -0.3250   -1.0920 C.ar    1  UNL1       -0.0610
     27  C20        5.9600   -1.4080   -0.7640 C.ar    1  UNL1       -0.0611
     28  C21        4.8020   -1.1770   -0.0220 C.ar    1  UNL1       -0.0521
     29  C22        4.4340    0.0900    0.3910 C.ar    1  UNL1        0.0106
     30  C23       -0.0020   -0.5830    0.6760 C.ar    1  UNL1       -0.0369
     31 H          -3.6400   -1.5714    0.5526 H       1  UNL1        0.2954
     32 H          -7.2032    1.0013    1.3490 H       1  UNL1        0.0626
     33 H          -7.8465    2.5906   -0.3151 H       1  UNL1        0.0618
     34 H          -6.4589    2.8918   -2.2523 H       1  UNL1        0.0618
     35 H          -4.4519    1.6230   -2.5121 H       1  UNL1        0.0625
     36 H          -2.4739    0.1990    0.9227 H       1  UNL1        0.1551
     37 H          -1.6670   -2.0466   -1.7803 H       1  UNL1        0.0636
     38 H           0.4606   -3.1032   -2.0455 H       1  UNL1        0.0618
     39 H           2.2885   -2.5569   -0.5864 H       1  UNL1        0.0620
     40 H           2.9193   -1.7574    1.6115 H       1  UNL1        0.0377
     41 H           1.8427   -0.4910    2.3518 H       1  UNL1        0.0377
     42 H           3.5168    3.4044    1.5361 H       1  UNL1        0.1921
     43 H           7.0139    1.7553   -0.9372 H       1  UNL1        0.0625
     44 H           7.6225   -0.4731   -1.6406 H       1  UNL1        0.0618
     45 H           6.2147   -2.3627   -1.0619 H       1  UNL1        0.0618
     46 H           4.2004   -1.9777    0.2268 H       1  UNL1        0.0624
     47 H          -0.1423    0.1149    1.4232 H       1  UNL1        0.0639
@<TRIPOS>BOND
     1     1     2    2
     2     2     3    1
     3     2     4    1
     4     4     5   ar
     5     4     9   ar
     6     5     6   ar
     7     6     7   ar
     8     7     8   ar
     9     8     9   ar
    10     9    10    1
    11    10    11    2
    12    10    12   am
    13    12    13    1
    14    13    14   ar
    15    13    30   ar
    16    14    15   ar
    17    15    16   ar
    18    16    17   ar
    19    17    18    1
    20    17    30   ar
    21    18    19    1
    22    19    20   ar
    23    19    29   ar
    24    20    21   ar
    25    21    22   ar
    26    22    23    2
    27    22    24   ar
    28    24    25   ar
    29    24    29   ar
    30    25    26   ar
    31    26    27   ar
    32    27    28   ar
    33    28    29   ar
    34     3    31    1
    35     5    32    1
    36     6    33    1
    37     7    34    1
    38     8    35    1
    39    12    36    1
    40    14    37    1
    41    15    38    1
    42    16    39    1
    43    18    40    1
    44    18    41    1
    45    21    42    1
    46    25    43    1
    47    26    44    1
    48    27    45    1
    49    28    46    1
    50    30    47    1
@<TRIPOS>MOLECULE
../data/bude_mols_rdkit_confs2/molecule_81.pdb
 47 50 0 0 0
SMALL
GASTEIGER

@<TRIPOS>ATOM
      1  O1         2.8970   -1.7450    0.3900 O.2     1  UNL1       -0.2451
      2  C1         4.0690   -1.8200   -0.0040 C.2     1  UNL1        0.3375
      3  O2         4.4850   -2.9800   -0.7060 O.3     1  UNL1       -0.4771
      4  C2         5.0810   -0.7920    0.1940 C.ar    1  UNL1        0.0709
      5  C3         6.4160   -1.0800   -0.0730 C.ar    1  UNL1       -0.0470
      6  C4         7.4410   -0.2110    0.2170 C.ar    1  UNL1       -0.0609
      7  C5         7.1180    1.0020    0.8020 C.ar    1  UNL1       -0.0610
      8  C6         5.8040    1.2970    1.0680 C.ar    1  UNL1       -0.0488
      9  C7         4.7650    0.3890    0.7570 C.ar    1  UNL1        0.0510
     10  C8         3.4170    0.9130    0.9560 C.2     1  UNL1        0.2490
     11  O3         3.1420    1.5420    2.0350 O.2     1  UNL1       -0.2698
     12  N1         2.3470    0.8020    0.0480 N.am    1  UNL1       -0.2815
     13  C9         1.0280    1.3310    0.2970 C.ar    1  UNL1        0.0339
     14  C10        0.8300    2.6990    0.3130 C.ar    1  UNL1       -0.0405
     15  C11       -0.4060    3.2480    0.5600 C.ar    1  UNL1       -0.0597
     16  C12       -1.4590    2.3540    0.7950 C.ar    1  UNL1       -0.0581
     17  C13       -1.2940    0.9970    0.7850 C.ar    1  UNL1       -0.0398
     18  C14       -2.4460    0.1100    1.0490 C.3     1  UNL1        0.0172
     19  C15       -3.0470   -0.4350   -0.1900 C.ar    1  UNL1        0.0736
     20  N2        -2.3050   -0.6580   -1.2950 N.ar    1  UNL1       -0.1750
     21  N3        -2.8950   -1.1260   -2.3730 N.ar    1  UNL1       -0.2425
     22  C16       -4.2000   -1.4000   -2.4510 C.ar    1  UNL1        0.2725
     23  O4        -4.7330   -1.8460   -3.5030 O.2     1  UNL1       -0.2658
     24  C17       -5.0220   -1.1950   -1.3540 C.ar    1  UNL1        0.0496
     25  C18       -6.3660   -1.4820   -1.4030 C.ar    1  UNL1       -0.0487
     26  C19       -7.1660   -1.2880   -0.3080 C.ar    1  UNL1       -0.0610
     27  C20       -6.5940   -0.7970    0.8520 C.ar    1  UNL1       -0.0611
     28  C21       -5.2260   -0.5150    0.8760 C.ar    1  UNL1       -0.0521
     29  C22       -4.3940   -0.6970   -0.2060 C.ar    1  UNL1        0.0106
     30  C23       -0.0290    0.5050    0.5300 C.ar    1  UNL1       -0.0369
     31 H           5.3682   -3.0518   -1.0105 H       1  UNL1        0.2954
     32 H           6.6470   -1.9867   -0.5083 H       1  UNL1        0.0626
     33 H           8.4211   -0.4551    0.0053 H       1  UNL1        0.0618
     34 H           7.8602    1.6796    1.0364 H       1  UNL1        0.0618
     35 H           5.5688    2.2019    1.5049 H       1  UNL1        0.0625
     36 H           2.5078    0.3373   -0.8049 H       1  UNL1        0.1551
     37 H           1.6311    3.3247    0.1348 H       1  UNL1        0.0636
     38 H          -0.5513    4.2697    0.5718 H       1  UNL1        0.0618
     39 H          -2.3989    2.7361    0.9836 H       1  UNL1        0.0620
     40 H          -3.1930    0.6672    1.5748 H       1  UNL1        0.0377
     41 H          -2.0893   -0.7181    1.6251 H       1  UNL1        0.0377
     42 H          -2.3410   -1.2841   -3.1714 H       1  UNL1        0.1921
     43 H          -6.7772   -1.8482   -2.2758 H       1  UNL1        0.0625
     44 H          -8.1744   -1.5037   -0.3476 H       1  UNL1        0.0618
     45 H          -7.1727   -0.6405    1.6920 H       1  UNL1        0.0618
     46 H          -4.8173   -0.1510    1.7509 H       1  UNL1        0.0624
     47 H           0.1191   -0.5162    0.5157 H       1  UNL1        0.0639
@<TRIPOS>BOND
     1     1     2    2
     2     2     3    1
     3     2     4    1
     4     4     5   ar
     5     4     9   ar
     6     5     6   ar
     7     6     7   ar
     8     7     8   ar
     9     8     9   ar
    10     9    10    1
    11    10    11    2
    12    10    12   am
    13    12    13    1
    14    13    14   ar
    15    13    30   ar
    16    14    15   ar
    17    15    16   ar
    18    16    17   ar
    19    17    18    1
    20    17    30   ar
    21    18    19    1
    22    19    20   ar
    23    19    29   ar
    24    20    21   ar
    25    21    22   ar
    26    22    23    2
    27    22    24   ar
    28    24    25   ar
    29    24    29   ar
    30    25    26   ar
    31    26    27   ar
    32    27    28   ar
    33    28    29   ar
    34     3    31    1
    35     5    32    1
    36     6    33    1
    37     7    34    1
    38     8    35    1
    39    12    36    1
    40    14    37    1
    41    15    38    1
    42    16    39    1
    43    18    40    1
    44    18    41    1
    45    21    42    1
    46    25    43    1
    47    26    44    1
    48    27    45    1
    49    28    46    1
    50    30    47    1
@<TRIPOS>MOLECULE
../data/bude_mols_rdkit_confs2/molecule_81.pdb
 47 50 0 0 0
SMALL
GASTEIGER

@<TRIPOS>ATOM
      1  O1        -6.1650   -2.3690    0.2610 O.2     1  UNL1       -0.2451
      2  C1        -5.3340   -1.4830   -0.0180 C.2     1  UNL1        0.3375
      3  O2        -4.2030   -1.8820   -0.7020 O.3     1  UNL1       -0.4771
      4  C2        -5.5730   -0.1100    0.3710 C.ar    1  UNL1        0.0709
      5  C3        -6.7990    0.1940    0.9710 C.ar    1  UNL1       -0.0470
      6  C4        -7.1470    1.4780    1.3180 C.ar    1  UNL1       -0.0609
      7  C5        -6.2700    2.4940    1.0700 C.ar    1  UNL1       -0.0610
      8  C6        -5.0490    2.2090    0.4750 C.ar    1  UNL1       -0.0488
      9  C7        -4.6850    0.9070    0.1200 C.ar    1  UNL1        0.0510
     10  C8        -3.3460    0.6660   -0.4180 C.2     1  UNL1        0.2490
     11  O3        -3.0460    1.2320   -1.4790 O.2     1  UNL1       -0.2698
     12  N1        -2.4660   -0.1860    0.2920 N.am    1  UNL1       -0.2815
     13  C9        -1.1700   -0.4800   -0.1810 C.ar    1  UNL1        0.0339
     14  C10       -0.9730   -0.6160   -1.5290 C.ar    1  UNL1       -0.0405
     15  C11        0.2820   -0.8860   -1.9990 C.ar    1  UNL1       -0.0597
     16  C12        1.3640   -1.0230   -1.1080 C.ar    1  UNL1       -0.0581
     17  C13        1.2050   -0.8930    0.2360 C.ar    1  UNL1       -0.0398
     18  C14        2.3200   -1.0180    1.1820 C.3     1  UNL1        0.0172
     19  C15        3.4040   -0.0320    1.0270 C.ar    1  UNL1        0.0736
     20  N2         3.3150    1.1970    1.5940 N.ar    1  UNL1       -0.1750
     21  N3         4.2140    2.1500    1.4170 N.ar    1  UNL1       -0.2425
     22  C16        5.3100    1.9920    0.6520 C.ar    1  UNL1        0.2725
     23  O4         6.1530    2.9100    0.4910 O.2     1  UNL1       -0.2658
     24  C17        5.4680    0.7530    0.0400 C.ar    1  UNL1        0.0496
     25  C18        6.5960    0.5420   -0.7190 C.ar    1  UNL1       -0.0487
     26  C19        6.7840   -0.6900   -1.2970 C.ar    1  UNL1       -0.0610
     27  C20        5.8430   -1.6860   -1.1070 C.ar    1  UNL1       -0.0611
     28  C21        4.7250   -1.4570   -0.3500 C.ar    1  UNL1       -0.0521
     29  C22        4.5300   -0.2360    0.2280 C.ar    1  UNL1        0.0106
     30  C23       -0.1050   -0.6160    0.6740 C.ar    1  UNL1       -0.0369
     31 H          -3.5493   -1.2521   -0.9342 H       1  UNL1        0.2954
     32 H          -7.4651   -0.5713    1.1597 H       1  UNL1        0.0626
     33 H          -8.0593    1.6711    1.7601 H       1  UNL1        0.0618
     34 H          -6.5125    3.4648    1.3225 H       1  UNL1        0.0618
     35 H          -4.3902    2.9813    0.2891 H       1  UNL1        0.0625
     36 H          -2.7672   -0.5847    1.1402 H       1  UNL1        0.1551
     37 H          -1.7642   -0.5157   -2.1839 H       1  UNL1        0.0636
     38 H           0.4376   -0.9902   -3.0139 H       1  UNL1        0.0618
     39 H           2.3025   -1.2275   -1.4853 H       1  UNL1        0.0620
     40 H           2.7436   -1.9934    1.0636 H       1  UNL1        0.0377
     41 H           1.9014   -0.8409    2.1507 H       1  UNL1        0.0377
     42 H           4.0753    3.0153    1.8656 H       1  UNL1        0.1921
     43 H           7.2884    1.2957   -0.8517 H       1  UNL1        0.0625
     44 H           7.6229   -0.8715   -1.8700 H       1  UNL1        0.0618
     45 H           5.9850   -2.6117   -1.5405 H       1  UNL1        0.0618
     46 H           4.0297   -2.2079   -0.2165 H       1  UNL1        0.0624
     47 H          -0.2719   -0.5102    1.6869 H       1  UNL1        0.0639
@<TRIPOS>BOND
     1     1     2    2
     2     2     3    1
     3     2     4    1
     4     4     5   ar
     5     4     9   ar
     6     5     6   ar
     7     6     7   ar
     8     7     8   ar
     9     8     9   ar
    10     9    10    1
    11    10    11    2
    12    10    12   am
    13    12    13    1
    14    13    14   ar
    15    13    30   ar
    16    14    15   ar
    17    15    16   ar
    18    16    17   ar
    19    17    18    1
    20    17    30   ar
    21    18    19    1
    22    19    20   ar
    23    19    29   ar
    24    20    21   ar
    25    21    22   ar
    26    22    23    2
    27    22    24   ar
    28    24    25   ar
    29    24    29   ar
    30    25    26   ar
    31    26    27   ar
    32    27    28   ar
    33    28    29   ar
    34     3    31    1
    35     5    32    1
    36     6    33    1
    37     7    34    1
    38     8    35    1
    39    12    36    1
    40    14    37    1
    41    15    38    1
    42    16    39    1
    43    18    40    1
    44    18    41    1
    45    21    42    1
    46    25    43    1
    47    26    44    1
    48    27    45    1
    49    28    46    1
    50    30    47    1
@<TRIPOS>MOLECULE
../data/bude_mols_rdkit_confs2/molecule_81.pdb
 47 50 0 0 0
SMALL
GASTEIGER

@<TRIPOS>ATOM
      1  O1        -5.5150   -0.9740    2.8810 O.2     1  UNL1       -0.2451
      2  C1        -4.9390   -0.4440    1.9010 C.2     1  UNL1        0.3375
      3  O2        -3.7560    0.1970    2.1810 O.3     1  UNL1       -0.4771
      4  C2        -5.5290   -0.5270    0.5950 C.ar    1  UNL1        0.0709
      5  C3        -6.8420   -1.0390    0.5200 C.ar    1  UNL1       -0.0470
      6  C4        -7.5630   -1.0820   -0.6440 C.ar    1  UNL1       -0.0609
      7  C5        -6.9900   -0.6050   -1.8090 C.ar    1  UNL1       -0.0610
      8  C6        -5.7200   -0.1070   -1.7570 C.ar    1  UNL1       -0.0488
      9  C7        -4.9790   -0.0640   -0.5630 C.ar    1  UNL1        0.0510
     10  C8        -3.5870    0.3820   -0.6610 C.2     1  UNL1        0.2490
     11  O3        -3.3630    1.4680   -1.3150 O.2     1  UNL1       -0.2698
     12  N1        -2.4790   -0.2750   -0.1090 N.am    1  UNL1       -0.2815
     13  C9        -1.1380    0.2180   -0.2150 C.ar    1  UNL1        0.0339
     14  C10       -0.8100    1.5250   -0.3940 C.ar    1  UNL1       -0.0405
     15  C11        0.4810    1.9740   -0.5400 C.ar    1  UNL1       -0.0597
     16  C12        1.4950    1.0350   -0.5000 C.ar    1  UNL1       -0.0581
     17  C13        1.2540   -0.2930   -0.3240 C.ar    1  UNL1       -0.0398
     18  C14        2.3230   -1.3250   -0.3130 C.3     1  UNL1        0.0172
     19  C15        3.5280   -0.8810    0.3770 C.ar    1  UNL1        0.0736
     20  N2         3.6760   -1.0640    1.7190 N.ar    1  UNL1       -0.1750
     21  N3         4.7070   -0.6260    2.4020 N.ar    1  UNL1       -0.2425
     22  C16        5.7240    0.0530    1.8230 C.ar    1  UNL1        0.2725
     23  O4         6.7210    0.4870    2.4430 O.2     1  UNL1       -0.2658
     24  C17        5.6560    0.2820    0.4620 C.ar    1  UNL1        0.0496
     25  C18        6.6610    0.9400   -0.2080 C.ar    1  UNL1       -0.0487
     26  C19        6.6330    1.1600   -1.5850 C.ar    1  UNL1       -0.0610
     27  C20        5.5440    0.6880   -2.2720 C.ar    1  UNL1       -0.0611
     28  C21        4.5270    0.0290   -1.6260 C.ar    1  UNL1       -0.0521
     29  C22        4.5630   -0.1860   -0.2490 C.ar    1  UNL1        0.0106
     30  C23       -0.0770   -0.6960   -0.1800 C.ar    1  UNL1       -0.0369
     31 H          -3.2750    0.6141    1.4935 H       1  UNL1        0.2954
     32 H          -7.2797   -1.3980    1.3829 H       1  UNL1        0.0626
     33 H          -8.5212   -1.4653   -0.6516 H       1  UNL1        0.0618
     34 H          -7.5118   -0.6252   -2.6992 H       1  UNL1        0.0618
     35 H          -5.2890    0.2502   -2.6240 H       1  UNL1        0.0625
     36 H          -2.6298   -1.1182    0.3763 H       1  UNL1        0.1551
     37 H          -1.5731    2.2192   -0.4218 H       1  UNL1        0.0636
     38 H           0.6861    2.9764   -0.6747 H       1  UNL1        0.0618
     39 H           2.4709    1.3528   -0.6076 H       1  UNL1        0.0620
     40 H           2.5768   -1.5655   -1.3243 H       1  UNL1        0.0377
     41 H           1.9446   -2.1761    0.2137 H       1  UNL1        0.0377
     42 H           4.7419   -0.7976    3.3708 H       1  UNL1        0.1921
     43 H           7.4702    1.2856    0.3311 H       1  UNL1        0.0625
     44 H           7.3990    1.6567   -2.0663 H       1  UNL1        0.0618
     45 H           5.4878    0.8306   -3.2926 H       1  UNL1        0.0618
     46 H           3.7202   -0.3138   -2.1706 H       1  UNL1        0.0624
     47 H          -0.2842   -1.6978   -0.0437 H       1  UNL1        0.0639
@<TRIPOS>BOND
     1     1     2    2
     2     2     3    1
     3     2     4    1
     4     4     5   ar
     5     4     9   ar
     6     5     6   ar
     7     6     7   ar
     8     7     8   ar
     9     8     9   ar
    10     9    10    1
    11    10    11    2
    12    10    12   am
    13    12    13    1
    14    13    14   ar
    15    13    30   ar
    16    14    15   ar
    17    15    16   ar
    18    16    17   ar
    19    17    18    1
    20    17    30   ar
    21    18    19    1
    22    19    20   ar
    23    19    29   ar
    24    20    21   ar
    25    21    22   ar
    26    22    23    2
    27    22    24   ar
    28    24    25   ar
    29    24    29   ar
    30    25    26   ar
    31    26    27   ar
    32    27    28   ar
    33    28    29   ar
    34     3    31    1
    35     5    32    1
    36     6    33    1
    37     7    34    1
    38     8    35    1
    39    12    36    1
    40    14    37    1
    41    15    38    1
    42    16    39    1
    43    18    40    1
    44    18    41    1
    45    21    42    1
    46    25    43    1
    47    26    44    1
    48    27    45    1
    49    28    46    1
    50    30    47    1
@<TRIPOS>MOLECULE
../data/bude_mols_rdkit_confs2/molecule_81.pdb
 47 50 0 0 0
SMALL
GASTEIGER

@<TRIPOS>ATOM
      1  O1        -3.8340   -1.4900   -0.9560 O.2     1  UNL1       -0.2451
      2  C1        -5.0280   -1.0910   -0.9300 C.2     1  UNL1        0.3375
      3  O2        -5.9800   -1.9990   -1.3460 O.3     1  UNL1       -0.4771
      4  C2        -5.3970    0.2200   -0.4980 C.ar    1  UNL1        0.0709
      5  C3        -6.7220    0.6590   -0.4820 C.ar    1  UNL1       -0.0470
      6  C4        -7.0610    1.9390   -0.0980 C.ar    1  UNL1       -0.0609
      7  C5        -6.0830    2.8250    0.2830 C.ar    1  UNL1       -0.0610
      8  C6        -4.7770    2.3890    0.2650 C.ar    1  UNL1       -0.0488
      9  C7        -4.4220    1.0930   -0.1200 C.ar    1  UNL1        0.0510
     10  C8        -2.9940    0.7630    0.0060 C.2     1  UNL1        0.2490
     11  O3        -2.2600    1.0980   -0.9510 O.2     1  UNL1       -0.2698
     12  N1        -2.4470    0.1160    1.1200 N.am    1  UNL1       -0.2815
     13  C9        -1.0910   -0.2550    1.3180 C.ar    1  UNL1        0.0339
     14  C10       -0.5920   -0.3950    2.6120 C.ar    1  UNL1       -0.0405
     15  C11        0.6820   -0.7950    2.8960 C.ar    1  UNL1       -0.0597
     16  C12        1.5280   -1.0780    1.8120 C.ar    1  UNL1       -0.0581
     17  C13        1.1150   -0.9650    0.4980 C.ar    1  UNL1       -0.0398
     18  C14        1.9610   -1.3330   -0.6450 C.3     1  UNL1        0.0172
     19  C15        3.0480   -0.4660   -1.0350 C.ar    1  UNL1        0.0736
     20  N2         2.7640    0.5610   -1.9050 N.ar    1  UNL1       -0.1750
     21  N3         3.6580    1.4260   -2.3040 N.ar    1  UNL1       -0.2425
     22  C16        4.9210    1.3870   -1.9050 C.ar    1  UNL1        0.2725
     23  O4         5.7740    2.2050   -2.2830 O.2     1  UNL1       -0.2658
     24  C17        5.3250    0.3940   -1.0270 C.ar    1  UNL1        0.0496
     25  C18        6.6300    0.2960   -0.6140 C.ar    1  UNL1       -0.0487
     26  C19        7.0060   -0.7370    0.2330 C.ar    1  UNL1       -0.0610
     27  C20        6.0310   -1.6360    0.6350 C.ar    1  UNL1       -0.0611
     28  C21        4.7280   -1.5340    0.2240 C.ar    1  UNL1       -0.0521
     29  C22        4.3520   -0.5120   -0.6170 C.ar    1  UNL1        0.0106
     30  C23       -0.2010   -0.5500    0.3240 C.ar    1  UNL1       -0.0369
     31 H          -6.8859   -1.7598   -1.3489 H       1  UNL1        0.2954
     32 H          -7.4695    0.0065   -0.7658 H       1  UNL1        0.0626
     33 H          -8.0506    2.2318   -0.0968 H       1  UNL1        0.0618
     34 H          -6.3194    3.7866    0.5734 H       1  UNL1        0.0618
     35 H          -4.0314    3.0445    0.5467 H       1  UNL1        0.0625
     36 H          -3.0721   -0.1066    1.8473 H       1  UNL1        0.1551
     37 H          -1.2224   -0.1840    3.4014 H       1  UNL1        0.0636
     38 H           1.0105   -0.8858    3.8701 H       1  UNL1        0.0618
     39 H           2.4954   -1.3821    2.0037 H       1  UNL1        0.0620
     40 H           1.3153   -1.4231   -1.4935 H       1  UNL1        0.0377
     41 H           2.4558   -2.2223   -0.3146 H       1  UNL1        0.0377
     42 H           3.3819    2.1364   -2.9271 H       1  UNL1        0.1921
     43 H           7.3279    0.9867   -0.9315 H       1  UNL1        0.0625
     44 H           7.9822   -0.8328    0.5538 H       1  UNL1        0.0618
     45 H           6.2955   -2.4089    1.2656 H       1  UNL1        0.0618
     46 H           4.0296   -2.2227    0.5447 H       1  UNL1        0.0624
     47 H          -0.5369   -0.4560   -0.6473 H       1  UNL1        0.0639
@<TRIPOS>BOND
     1     1     2    2
     2     2     3    1
     3     2     4    1
     4     4     5   ar
     5     4     9   ar
     6     5     6   ar
     7     6     7   ar
     8     7     8   ar
     9     8     9   ar
    10     9    10    1
    11    10    11    2
    12    10    12   am
    13    12    13    1
    14    13    14   ar
    15    13    30   ar
    16    14    15   ar
    17    15    16   ar
    18    16    17   ar
    19    17    18    1
    20    17    30   ar
    21    18    19    1
    22    19    20   ar
    23    19    29   ar
    24    20    21   ar
    25    21    22   ar
    26    22    23    2
    27    22    24   ar
    28    24    25   ar
    29    24    29   ar
    30    25    26   ar
    31    26    27   ar
    32    27    28   ar
    33    28    29   ar
    34     3    31    1
    35     5    32    1
    36     6    33    1
    37     7    34    1
    38     8    35    1
    39    12    36    1
    40    14    37    1
    41    15    38    1
    42    16    39    1
    43    18    40    1
    44    18    41    1
    45    21    42    1
    46    25    43    1
    47    26    44    1
    48    27    45    1
    49    28    46    1
    50    30    47    1
@<TRIPOS>MOLECULE
../data/bude_mols_rdkit_confs2/molecule_81.pdb
 47 50 0 0 0
SMALL
GASTEIGER

@<TRIPOS>ATOM
      1  O1         5.5470   -0.7580    2.3480 O.2     1  UNL1       -0.2451
      2  C1         4.6790   -0.8170    1.4490 C.2     1  UNL1        0.3375
      3  O2         3.3710   -0.8300    1.8580 O.3     1  UNL1       -0.4771
      4  C2         5.0470   -0.8750    0.0560 C.ar    1  UNL1        0.0709
      5  C3         6.4150   -1.0820   -0.2180 C.ar    1  UNL1       -0.0470
      6  C4         6.8680   -1.2700   -1.4950 C.ar    1  UNL1       -0.0609
      7  C5         5.9680   -1.2580   -2.5280 C.ar    1  UNL1       -0.0610
      8  C6         4.6230   -1.0530   -2.2620 C.ar    1  UNL1       -0.0488
      9  C7         4.1580   -0.8590   -0.9820 C.ar    1  UNL1        0.0510
     10  C8         2.7660   -0.4990   -0.7770 C.2     1  UNL1        0.2490
     11  O3         1.7850   -1.1580   -1.2600 O.2     1  UNL1       -0.2698
     12  N1         2.4620    0.6460   -0.0100 N.am    1  UNL1       -0.2815
     13  C9         1.1970    1.1690    0.3180 C.ar    1  UNL1        0.0339
     14  C10        1.1430    2.0000    1.4470 C.ar    1  UNL1       -0.0405
     15  C11       -0.0030    2.6240    1.8470 C.ar    1  UNL1       -0.0597
     16  C12       -1.1650    2.4530    1.1340 C.ar    1  UNL1       -0.0581
     17  C13       -1.1810    1.6570    0.0220 C.ar    1  UNL1       -0.0398
     18  C14       -2.3690    1.4990   -0.8100 C.3     1  UNL1        0.0172
     19  C15       -3.1960    0.3200   -0.7400 C.ar    1  UNL1        0.0736
     20  N2        -2.9660   -0.6670   -1.6710 N.ar    1  UNL1       -0.1750
     21  N3        -3.6550   -1.7860   -1.7170 N.ar    1  UNL1       -0.2425
     22  C16       -4.6450   -2.0620   -0.8540 C.ar    1  UNL1        0.2725
     23  O4        -5.2940   -3.1660   -0.9270 O.2     1  UNL1       -0.2658
     24  C17       -4.9380   -1.1270    0.1070 C.ar    1  UNL1        0.0496
     25  C18       -5.9590   -1.3660    0.9940 C.ar    1  UNL1       -0.0487
     26  C19       -6.2890   -0.4350    1.9560 C.ar    1  UNL1       -0.0610
     27  C20       -5.5400    0.7450    1.9760 C.ar    1  UNL1       -0.0611
     28  C21       -4.5170    0.9920    1.0950 C.ar    1  UNL1       -0.0521
     29  C22       -4.1970    0.0580    0.1430 C.ar    1  UNL1        0.0106
     30  C23        0.0210    1.0290   -0.3550 C.ar    1  UNL1       -0.0369
     31 H           2.6823   -0.8734    1.2241 H       1  UNL1        0.2954
     32 H           7.0897   -1.0919    0.5628 H       1  UNL1        0.0626
     33 H           7.8728   -1.4187   -1.6776 H       1  UNL1        0.0618
     34 H           6.2894   -1.4007   -3.4982 H       1  UNL1        0.0618
     35 H           3.9520   -1.0457   -3.0460 H       1  UNL1        0.0625
     36 H           3.2353    1.1437    0.3414 H       1  UNL1        0.1551
     37 H           2.0041    2.1452    1.9969 H       1  UNL1        0.0636
     38 H           0.0032    3.2250    2.6859 H       1  UNL1        0.0618
     39 H          -2.0294    2.9272    1.4389 H       1  UNL1        0.0620
     40 H          -2.0369    1.5729   -1.8245 H       1  UNL1        0.0377
     41 H          -3.0193    2.2547   -0.4214 H       1  UNL1        0.0377
     42 H          -3.4359   -2.4477   -2.4122 H       1  UNL1        0.1921
     43 H          -6.4850   -2.2522    0.9399 H       1  UNL1        0.0625
     44 H          -7.0530   -0.6015    2.6295 H       1  UNL1        0.0618
     45 H          -5.7660    1.4613    2.6837 H       1  UNL1        0.0618
     46 H          -3.9902    1.8778    1.1487 H       1  UNL1        0.0624
     47 H           0.0107    0.4258   -1.1923 H       1  UNL1        0.0639
@<TRIPOS>BOND
     1     1     2    2
     2     2     3    1
     3     2     4    1
     4     4     5   ar
     5     4     9   ar
     6     5     6   ar
     7     6     7   ar
     8     7     8   ar
     9     8     9   ar
    10     9    10    1
    11    10    11    2
    12    10    12   am
    13    12    13    1
    14    13    14   ar
    15    13    30   ar
    16    14    15   ar
    17    15    16   ar
    18    16    17   ar
    19    17    18    1
    20    17    30   ar
    21    18    19    1
    22    19    20   ar
    23    19    29   ar
    24    20    21   ar
    25    21    22   ar
    26    22    23    2
    27    22    24   ar
    28    24    25   ar
    29    24    29   ar
    30    25    26   ar
    31    26    27   ar
    32    27    28   ar
    33    28    29   ar
    34     3    31    1
    35     5    32    1
    36     6    33    1
    37     7    34    1
    38     8    35    1
    39    12    36    1
    40    14    37    1
    41    15    38    1
    42    16    39    1
    43    18    40    1
    44    18    41    1
    45    21    42    1
    46    25    43    1
    47    26    44    1
    48    27    45    1
    49    28    46    1
    50    30    47    1
@<TRIPOS>MOLECULE
../data/bude_mols_rdkit_confs2/molecule_81.pdb
 47 50 0 0 0
SMALL
GASTEIGER

@<TRIPOS>ATOM
      1  O1        -3.9320   -1.8380    0.8610 O.2     1  UNL1       -0.2451
      2  C1        -5.0850   -1.3850    0.8540 C.2     1  UNL1        0.3375
      3  O2        -6.0140   -2.1070    1.6340 O.3     1  UNL1       -0.4771
      4  C2        -5.5540   -0.2060    0.1310 C.ar    1  UNL1        0.0709
      5  C3        -6.9280    0.0890    0.1390 C.ar    1  UNL1       -0.0470
      6  C4        -7.4370    1.1320   -0.5970 C.ar    1  UNL1       -0.0609
      7  C5        -6.5670    1.8920   -1.3510 C.ar    1  UNL1       -0.0610
      8  C6        -5.2110    1.5910   -1.3480 C.ar    1  UNL1       -0.0488
      9  C7        -4.6800    0.5350   -0.6030 C.ar    1  UNL1        0.0510
     10  C8        -3.2410    0.3930   -0.5840 C.2     1  UNL1        0.2490
     11  O3        -2.6290    0.2990   -1.6940 O.2     1  UNL1       -0.2698
     12  N1        -2.4510    0.3540    0.5770 N.am    1  UNL1       -0.2815
     13  C9        -1.0690    0.2110    0.7120 C.ar    1  UNL1        0.0339
     14  C10       -0.5240    0.3960    1.9890 C.ar    1  UNL1       -0.0405
     15  C11        0.8110    0.2820    2.2730 C.ar    1  UNL1       -0.0597
     16  C12        1.6850   -0.0390    1.2330 C.ar    1  UNL1       -0.0581
     17  C13        1.2090   -0.2340   -0.0390 C.ar    1  UNL1       -0.0398
     18  C14        2.1590   -0.5800   -1.1230 C.3     1  UNL1        0.0172
     19  C15        3.4610   -0.9930   -0.5860 C.ar    1  UNL1        0.0736
     20  N2         3.6650   -2.3140   -0.4100 N.ar    1  UNL1       -0.1750
     21  N3         4.7840   -2.7730    0.0990 N.ar    1  UNL1       -0.2425
     22  C16        5.8030   -2.0020    0.4830 C.ar    1  UNL1        0.2725
     23  O4         6.8810   -2.4310    0.9740 O.2     1  UNL1       -0.2658
     24  C17        5.6540   -0.6300    0.3260 C.ar    1  UNL1        0.0496
     25  C18        6.6630    0.2270    0.6850 C.ar    1  UNL1       -0.0487
     26  C19        6.5170    1.5770    0.5150 C.ar    1  UNL1       -0.0610
     27  C20        5.3350    2.0390   -0.0220 C.ar    1  UNL1       -0.0611
     28  C21        4.2920    1.2190   -0.3970 C.ar    1  UNL1       -0.0521
     29  C22        4.4760   -0.1360   -0.2110 C.ar    1  UNL1        0.0106
     30  C23       -0.1720   -0.1010   -0.2670 C.ar    1  UNL1       -0.0369
     31 H          -6.9067   -1.8259    1.6789 H       1  UNL1        0.2954
     32 H          -7.5666   -0.4883    0.7081 H       1  UNL1        0.0626
     33 H          -8.4474    1.3420   -0.5859 H       1  UNL1        0.0618
     34 H          -6.9219    2.6803   -1.9145 H       1  UNL1        0.0618
     35 H          -4.5723    2.1685   -1.9169 H       1  UNL1        0.0625
     36 H          -2.9469    0.4406    1.4231 H       1  UNL1        0.1551
     37 H          -1.1663    0.6321    2.7615 H       1  UNL1        0.0636
     38 H           1.1621    0.4298    3.2321 H       1  UNL1        0.0618
     39 H           2.6954   -0.1302    1.4220 H       1  UNL1        0.0620
     40 H           2.2973    0.2757   -1.7503 H       1  UNL1        0.0377
     41 H           1.7505   -1.3979   -1.6789 H       1  UNL1        0.0377
     42 H           4.8775   -3.7474    0.2041 H       1  UNL1        0.1921
     43 H           7.5370   -0.1483    1.0855 H       1  UNL1        0.0625
     44 H           7.2703    2.2302    0.7813 H       1  UNL1        0.0618
     45 H           5.2242    3.0569   -0.1508 H       1  UNL1        0.0618
     46 H           3.4192    1.5987   -0.7960 H       1  UNL1        0.0624
     47 H          -0.5256   -0.2471   -1.2255 H       1  UNL1        0.0639
@<TRIPOS>BOND
     1     1     2    2
     2     2     3    1
     3     2     4    1
     4     4     5   ar
     5     4     9   ar
     6     5     6   ar
     7     6     7   ar
     8     7     8   ar
     9     8     9   ar
    10     9    10    1
    11    10    11    2
    12    10    12   am
    13    12    13    1
    14    13    14   ar
    15    13    30   ar
    16    14    15   ar
    17    15    16   ar
    18    16    17   ar
    19    17    18    1
    20    17    30   ar
    21    18    19    1
    22    19    20   ar
    23    19    29   ar
    24    20    21   ar
    25    21    22   ar
    26    22    23    2
    27    22    24   ar
    28    24    25   ar
    29    24    29   ar
    30    25    26   ar
    31    26    27   ar
    32    27    28   ar
    33    28    29   ar
    34     3    31    1
    35     5    32    1
    36     6    33    1
    37     7    34    1
    38     8    35    1
    39    12    36    1
    40    14    37    1
    41    15    38    1
    42    16    39    1
    43    18    40    1
    44    18    41    1
    45    21    42    1
    46    25    43    1
    47    26    44    1
    48    27    45    1
    49    28    46    1
    50    30    47    1
@<TRIPOS>MOLECULE
../data/bude_mols_rdkit_confs2/molecule_81.pdb
 47 50 0 0 0
SMALL
GASTEIGER

@<TRIPOS>ATOM
      1  O1         4.0490    1.2290    1.8460 O.2     1  UNL1       -0.2451
      2  C1         5.2670    1.2180    1.5340 C.2     1  UNL1        0.3375
      3  O2         6.1800    2.0000    2.2170 O.3     1  UNL1       -0.4771
      4  C2         5.7400    0.3730    0.4250 C.ar    1  UNL1        0.0709
      5  C3         7.0990    0.4030    0.1260 C.ar    1  UNL1       -0.0470
      6  C4         7.6150   -0.3920   -0.8750 C.ar    1  UNL1       -0.0609
      7  C5         6.7240   -1.2100   -1.5600 C.ar    1  UNL1       -0.0610
      8  C6         5.3740   -1.2270   -1.2530 C.ar    1  UNL1       -0.0488
      9  C7         4.8560   -0.4170   -0.2310 C.ar    1  UNL1        0.0510
     10  C8         3.4560   -0.4970    0.0320 C.2     1  UNL1        0.2490
     11  O3         3.0550   -1.6520    0.4650 O.2     1  UNL1       -0.2698
     12  N1         2.4480    0.4840   -0.1160 N.am    1  UNL1       -0.2815
     13  C9         1.1170    0.0930    0.2700 C.ar    1  UNL1        0.0339
     14  C10        1.0240   -0.4190    1.5810 C.ar    1  UNL1       -0.0405
     15  C11       -0.1840   -0.9020    2.0000 C.ar    1  UNL1       -0.0597
     16  C12       -1.2770   -0.8930    1.1740 C.ar    1  UNL1       -0.0581
     17  C13       -1.1720   -0.3900   -0.1030 C.ar    1  UNL1       -0.0398
     18  C14       -2.3990   -0.4970   -0.9340 C.3     1  UNL1        0.0172
     19  C15       -3.4640    0.2560   -0.2220 C.ar    1  UNL1        0.0736
     20  N2        -3.1430    1.1840    0.6900 N.ar    1  UNL1       -0.1750
     21  N3        -4.0320    1.8590    1.3690 N.ar    1  UNL1       -0.2425
     22  C16       -5.3490    1.6570    1.1890 C.ar    1  UNL1        0.2725
     23  O4        -6.1790    2.3390    1.8770 O.2     1  UNL1       -0.2658
     24  C17       -5.7480    0.7220    0.2710 C.ar    1  UNL1        0.0496
     25  C18       -7.0930    0.4840    0.0540 C.ar    1  UNL1       -0.0487
     26  C19       -7.5150   -0.4510   -0.8630 C.ar    1  UNL1       -0.0610
     27  C20       -6.5380   -1.1310   -1.5480 C.ar    1  UNL1       -0.0611
     28  C21       -5.1900   -0.9130   -1.3520 C.ar    1  UNL1       -0.0521
     29  C22       -4.8100    0.0190   -0.4370 C.ar    1  UNL1        0.0106
     30  C23        0.0360    0.1070   -0.5520 C.ar    1  UNL1       -0.0369
     31 H           7.0850    1.9830    1.9750 H       1  UNL1        0.2954
     32 H           7.7261    1.0261    0.6585 H       1  UNL1        0.0626
     33 H           8.6207   -0.3804   -1.1062 H       1  UNL1        0.0618
     34 H           7.0769   -1.8188   -2.3149 H       1  UNL1        0.0618
     35 H           4.7396   -1.8443   -1.7835 H       1  UNL1        0.0625
     36 H           2.6453    1.3838   -0.4635 H       1  UNL1        0.1551
     37 H           1.8450   -0.4286    2.2062 H       1  UNL1        0.0636
     38 H          -0.2744   -1.2803    2.9559 H       1  UNL1        0.0618
     39 H          -2.1798   -1.2637    1.5095 H       1  UNL1        0.0620
     40 H          -2.6825   -1.5230   -1.0426 H       1  UNL1        0.0377
     41 H          -2.2360   -0.0994   -1.9139 H       1  UNL1        0.0377
     42 H          -3.7317    2.5286    2.0253 H       1  UNL1        0.1921
     43 H          -7.7941    1.0184    0.5906 H       1  UNL1        0.0625
     44 H          -8.5174   -0.6326   -1.0281 H       1  UNL1        0.0618
     45 H          -6.8258   -1.8384   -2.2421 H       1  UNL1        0.0618
     46 H          -4.4860   -1.4448   -1.8873 H       1  UNL1        0.0624
     47 H           0.1168    0.4873   -1.5080 H       1  UNL1        0.0639
@<TRIPOS>BOND
     1     1     2    2
     2     2     3    1
     3     2     4    1
     4     4     5   ar
     5     4     9   ar
     6     5     6   ar
     7     6     7   ar
     8     7     8   ar
     9     8     9   ar
    10     9    10    1
    11    10    11    2
    12    10    12   am
    13    12    13    1
    14    13    14   ar
    15    13    30   ar
    16    14    15   ar
    17    15    16   ar
    18    16    17   ar
    19    17    18    1
    20    17    30   ar
    21    18    19    1
    22    19    20   ar
    23    19    29   ar
    24    20    21   ar
    25    21    22   ar
    26    22    23    2
    27    22    24   ar
    28    24    25   ar
    29    24    29   ar
    30    25    26   ar
    31    26    27   ar
    32    27    28   ar
    33    28    29   ar
    34     3    31    1
    35     5    32    1
    36     6    33    1
    37     7    34    1
    38     8    35    1
    39    12    36    1
    40    14    37    1
    41    15    38    1
    42    16    39    1
    43    18    40    1
    44    18    41    1
    45    21    42    1
    46    25    43    1
    47    26    44    1
    48    27    45    1
    49    28    46    1
    50    30    47    1
@<TRIPOS>MOLECULE
../data/bude_mols_rdkit_confs2/molecule_81.pdb
 47 50 0 0 0
SMALL
GASTEIGER

@<TRIPOS>ATOM
      1  O1        -5.2680   -3.0250    0.5420 O.2     1  UNL1       -0.2451
      2  C1        -4.7300   -1.9530    0.1300 C.2     1  UNL1        0.3375
      3  O2        -3.4670   -2.0370   -0.4000 O.3     1  UNL1       -0.4771
      4  C2        -5.4560   -0.6960    0.2300 C.ar    1  UNL1        0.0709
      5  C3        -6.7580   -0.7040    0.7470 C.ar    1  UNL1       -0.0470
      6  C4        -7.5140    0.4370    0.8410 C.ar    1  UNL1       -0.0609
      7  C5        -6.9310    1.6030    0.3980 C.ar    1  UNL1       -0.0610
      8  C6        -5.6690    1.6690   -0.1160 C.ar    1  UNL1       -0.0488
      9  C7        -4.9330    0.4760   -0.1910 C.ar    1  UNL1        0.0510
     10  C8        -3.5490    0.5800   -0.6790 C.2     1  UNL1        0.2490
     11  O3        -3.4180    0.7770   -1.9430 O.2     1  UNL1       -0.2698
     12  N1        -2.4260    0.5000    0.1370 N.am    1  UNL1       -0.2815
     13  C9        -1.0900    0.6500   -0.3220 C.ar    1  UNL1        0.0339
     14  C10       -0.7160    0.9820   -1.5940 C.ar    1  UNL1       -0.0405
     15  C11        0.5970    1.1840   -1.9530 C.ar    1  UNL1       -0.0597
     16  C12        1.6180    1.0610   -1.0450 C.ar    1  UNL1       -0.0581
     17  C13        1.2870    0.7250    0.2420 C.ar    1  UNL1       -0.0398
     18  C14        2.2760    0.6010    1.3640 C.3     1  UNL1        0.0172
     19  C15        3.2760   -0.4430    1.1610 C.ar    1  UNL1        0.0736
     20  N2         2.9670   -1.7050    1.5490 N.ar    1  UNL1       -0.1750
     21  N3         3.8260   -2.6790    1.3110 N.ar    1  UNL1       -0.2425
     22  C16        4.9910   -2.4630    0.6950 C.ar    1  UNL1        0.2725
     23  O4         5.8190   -3.3960    0.4610 O.2     1  UNL1       -0.2658
     24  C17        5.3500   -1.2000    0.2840 C.ar    1  UNL1        0.0496
     25  C18        6.5540   -0.9440   -0.3190 C.ar    1  UNL1       -0.0487
     26  C19        6.9180    0.3330   -0.6940 C.ar    1  UNL1       -0.0610
     27  C20        6.0590    1.3740   -0.4600 C.ar    1  UNL1       -0.0611
     28  C21        4.8590    1.0990    0.1410 C.ar    1  UNL1       -0.0521
     29  C22        4.4710   -0.1740    0.5250 C.ar    1  UNL1        0.0106
     30  C23       -0.0440    0.5230    0.5970 C.ar    1  UNL1       -0.0369
     31 H          -3.0385   -1.2653   -0.7143 H       1  UNL1        0.2954
     32 H          -7.1619   -1.5979    1.0678 H       1  UNL1        0.0626
     33 H          -8.4719    0.4221    1.2246 H       1  UNL1        0.0618
     34 H          -7.4790    2.4754    0.4581 H       1  UNL1        0.0618
     35 H          -5.2696    2.5643   -0.4383 H       1  UNL1        0.0625
     36 H          -2.5660    0.3280    1.0962 H       1  UNL1        0.1551
     37 H          -1.4478    1.0854   -2.3143 H       1  UNL1        0.0636
     38 H           0.8191    1.4342   -2.9293 H       1  UNL1        0.0618
     39 H           2.6002    1.2159   -1.3211 H       1  UNL1        0.0620
     40 H           1.7390    0.3823    2.2633 H       1  UNL1        0.0377
     41 H           2.8043    1.5301    1.4153 H       1  UNL1        0.0377
     42 H           3.6005   -3.5937    1.5968 H       1  UNL1        0.1921
     43 H           7.2041   -1.7255   -0.4969 H       1  UNL1        0.0625
     44 H           7.8297    0.5024   -1.1469 H       1  UNL1        0.0618
     45 H           6.3088    2.3385   -0.7289 H       1  UNL1        0.0618
     46 H           4.2098    1.8817    0.3169 H       1  UNL1        0.0624
     47 H          -0.2663    0.2707    1.5727 H       1  UNL1        0.0639
@<TRIPOS>BOND
     1     1     2    2
     2     2     3    1
     3     2     4    1
     4     4     5   ar
     5     4     9   ar
     6     5     6   ar
     7     6     7   ar
     8     7     8   ar
     9     8     9   ar
    10     9    10    1
    11    10    11    2
    12    10    12   am
    13    12    13    1
    14    13    14   ar
    15    13    30   ar
    16    14    15   ar
    17    15    16   ar
    18    16    17   ar
    19    17    18    1
    20    17    30   ar
    21    18    19    1
    22    19    20   ar
    23    19    29   ar
    24    20    21   ar
    25    21    22   ar
    26    22    23    2
    27    22    24   ar
    28    24    25   ar
    29    24    29   ar
    30    25    26   ar
    31    26    27   ar
    32    27    28   ar
    33    28    29   ar
    34     3    31    1
    35     5    32    1
    36     6    33    1
    37     7    34    1
    38     8    35    1
    39    12    36    1
    40    14    37    1
    41    15    38    1
    42    16    39    1
    43    18    40    1
    44    18    41    1
    45    21    42    1
    46    25    43    1
    47    26    44    1
    48    27    45    1
    49    28    46    1
    50    30    47    1
@<TRIPOS>MOLECULE
../data/bude_mols_rdkit_confs2/molecule_81.pdb
 47 50 0 0 0
SMALL
GASTEIGER

@<TRIPOS>ATOM
      1  O1        -2.6130   -1.7880    0.7730 O.2     1  UNL1       -0.2451
      2  C1        -3.8530   -1.7930    0.8940 C.2     1  UNL1        0.3375
      3  O2        -4.4160   -3.0950    0.9170 O.3     1  UNL1       -0.4771
      4  C2        -4.7320   -0.6570    1.0080 C.ar    1  UNL1        0.0709
      5  C3        -6.0730   -0.8740    1.3490 C.ar    1  UNL1       -0.0470
      6  C4        -6.9430    0.1580    1.5930 C.ar    1  UNL1       -0.0609
      7  C5        -6.4880    1.4500    1.5020 C.ar    1  UNL1       -0.0610
      8  C6        -5.1830    1.6880    1.1680 C.ar    1  UNL1       -0.0488
      9  C7        -4.2930    0.6170    0.9160 C.ar    1  UNL1        0.0510
     10  C8        -2.9840    1.0620    0.4610 C.2     1  UNL1        0.2490
     11  O3        -2.5030    2.0560    1.0790 O.2     1  UNL1       -0.2698
     12  N1        -2.2110    0.5260   -0.5710 N.am    1  UNL1       -0.2815
     13  C9        -0.9090    1.0200   -0.9650 C.ar    1  UNL1        0.0339
     14  C10       -0.5920    2.3500   -0.8950 C.ar    1  UNL1       -0.0405
     15  C11        0.6650    2.8090   -1.2260 C.ar    1  UNL1       -0.0597
     16  C12        1.6380    1.8800   -1.6450 C.ar    1  UNL1       -0.0581
     17  C13        1.3680    0.5550   -1.7280 C.ar    1  UNL1       -0.0398
     18  C14        2.3760   -0.4470   -2.1250 C.3     1  UNL1        0.0172
     19  C15        2.9870   -1.1220   -0.9660 C.ar    1  UNL1        0.0736
     20  N2         2.4110   -2.2570   -0.4860 N.ar    1  UNL1       -0.1750
     21  N3         2.8580   -2.8540    0.6010 N.ar    1  UNL1       -0.2425
     22  C16        3.8980   -2.3780    1.2900 C.ar    1  UNL1        0.2725
     23  O4         4.3090   -2.9820    2.3490 O.2     1  UNL1       -0.2658
     24  C17        4.5350   -1.2490    0.8820 C.ar    1  UNL1        0.0496
     25  C18        5.6170   -0.7710    1.5800 C.ar    1  UNL1       -0.0487
     26  C19        6.2580    0.3590    1.1310 C.ar    1  UNL1       -0.0610
     27  C20        5.8110    0.9920   -0.0010 C.ar    1  UNL1       -0.0611
     28  C21        4.7270    0.5010   -0.6870 C.ar    1  UNL1       -0.0521
     29  C22        4.0540   -0.6180   -0.2820 C.ar    1  UNL1        0.0106
     30  C23        0.0720    0.1600   -1.3770 C.ar    1  UNL1       -0.0369
     31 H          -5.3426   -3.2033    1.0048 H       1  UNL1        0.2954
     32 H          -6.4185   -1.8439    1.4191 H       1  UNL1        0.0626
     33 H          -7.9260   -0.0342    1.8416 H       1  UNL1        0.0618
     34 H          -7.1280    2.2387    1.6849 H       1  UNL1        0.0618
     35 H          -4.8435    2.6601    1.0990 H       1  UNL1        0.0625
     36 H          -2.5776   -0.2423   -1.0655 H       1  UNL1        0.1551
     37 H          -1.3103    3.0242   -0.5875 H       1  UNL1        0.0636
     38 H           0.8893    3.8147   -1.1680 H       1  UNL1        0.0618
     39 H           2.5806    2.2176   -1.8951 H       1  UNL1        0.0620
     40 H           3.1467    0.0435   -2.6821 H       1  UNL1        0.0377
     41 H           1.8805   -1.1922   -2.7115 H       1  UNL1        0.0377
     42 H           2.4123   -3.6742    0.9137 H       1  UNL1        0.1921
     43 H           5.9447   -1.2542    2.4310 H       1  UNL1        0.0625
     44 H           7.0730    0.7301    1.6439 H       1  UNL1        0.0618
     45 H           6.2912    1.8408   -0.3386 H       1  UNL1        0.0618
     46 H           4.4099    0.9934   -1.5367 H       1  UNL1        0.0624
     47 H          -0.1584   -0.8444   -1.4325 H       1  UNL1        0.0639
@<TRIPOS>BOND
     1     1     2    2
     2     2     3    1
     3     2     4    1
     4     4     5   ar
     5     4     9   ar
     6     5     6   ar
     7     6     7   ar
     8     7     8   ar
     9     8     9   ar
    10     9    10    1
    11    10    11    2
    12    10    12   am
    13    12    13    1
    14    13    14   ar
    15    13    30   ar
    16    14    15   ar
    17    15    16   ar
    18    16    17   ar
    19    17    18    1
    20    17    30   ar
    21    18    19    1
    22    19    20   ar
    23    19    29   ar
    24    20    21   ar
    25    21    22   ar
    26    22    23    2
    27    22    24   ar
    28    24    25   ar
    29    24    29   ar
    30    25    26   ar
    31    26    27   ar
    32    27    28   ar
    33    28    29   ar
    34     3    31    1
    35     5    32    1
    36     6    33    1
    37     7    34    1
    38     8    35    1
    39    12    36    1
    40    14    37    1
    41    15    38    1
    42    16    39    1
    43    18    40    1
    44    18    41    1
    45    21    42    1
    46    25    43    1
    47    26    44    1
    48    27    45    1
    49    28    46    1
    50    30    47    1
@<TRIPOS>MOLECULE
../data/bude_mols_rdkit_confs2/molecule_81.pdb
 47 50 0 0 0
SMALL
GASTEIGER

@<TRIPOS>ATOM
      1  O1        -4.6470   -0.3240   -3.2540 O.2     1  UNL1       -0.2451
      2  C1        -4.0060   -0.0230   -2.2190 C.2     1  UNL1        0.3375
      3  O2        -2.6540   -0.2780   -2.2430 O.3     1  UNL1       -0.4771
      4  C2        -4.6240    0.5680   -1.0500 C.ar    1  UNL1        0.0709
      5  C3        -5.9600    0.9990   -1.2440 C.ar    1  UNL1       -0.0470
      6  C4        -6.5870    1.6800   -0.2420 C.ar    1  UNL1       -0.0609
      7  C5        -5.9540    1.9550    0.9450 C.ar    1  UNL1       -0.0610
      8  C6        -4.6460    1.5200    1.1100 C.ar    1  UNL1       -0.0488
      9  C7        -3.9810    0.8270    0.1210 C.ar    1  UNL1        0.0510
     10  C8        -2.6710    0.3100    0.4510 C.2     1  UNL1        0.2490
     11  O3        -1.8650    1.1390    0.9850 O.2     1  UNL1       -0.2698
     12  N1        -2.2130   -1.0040    0.2480 N.am    1  UNL1       -0.2815
     13  C9        -0.9450   -1.5440    0.5420 C.ar    1  UNL1        0.0339
     14  C10       -0.6790   -2.8670    0.1680 C.ar    1  UNL1       -0.0405
     15  C11        0.5040   -3.4940    0.4010 C.ar    1  UNL1       -0.0597
     16  C12        1.4970   -2.8140    1.0320 C.ar    1  UNL1       -0.0581
     17  C13        1.3130   -1.5070    1.4310 C.ar    1  UNL1       -0.0398
     18  C14        2.4440   -0.8780    2.1240 C.3     1  UNL1        0.0172
     19  C15        3.5780   -0.5810    1.2280 C.ar    1  UNL1        0.0736
     20  N2         4.6120   -1.4810    1.1710 N.ar    1  UNL1       -0.1750
     21  N3         5.6410   -1.3110    0.3690 N.ar    1  UNL1       -0.2425
     22  C16        5.7520   -0.2470   -0.4470 C.ar    1  UNL1        0.2725
     23  O4         6.7350   -0.0940   -1.2060 O.2     1  UNL1       -0.2658
     24  C17        4.7570    0.7190   -0.4600 C.ar    1  UNL1        0.0496
     25  C18        4.8510    1.8290   -1.2820 C.ar    1  UNL1       -0.0487
     26  C19        3.8630    2.7790   -1.2700 C.ar    1  UNL1       -0.0610
     27  C20        2.8040    2.5700   -0.4180 C.ar    1  UNL1       -0.0611
     28  C21        2.7050    1.4590    0.4070 C.ar    1  UNL1       -0.0521
     29  C22        3.6810    0.5120    0.3990 C.ar    1  UNL1        0.0106
     30  C23        0.0860   -0.9050    1.1730 C.ar    1  UNL1       -0.0369
     31 H          -2.1253   -0.0732   -1.4970 H       1  UNL1        0.2954
     32 H          -6.4511    0.8007   -2.1298 H       1  UNL1        0.0626
     33 H          -7.5598    1.9959   -0.3793 H       1  UNL1        0.0618
     34 H          -6.4383    2.4720    1.6955 H       1  UNL1        0.0618
     35 H          -4.1583    1.7208    1.9970 H       1  UNL1        0.0625
     36 H          -2.8622   -1.6273   -0.1511 H       1  UNL1        0.1551
     37 H          -1.4238   -3.3961   -0.3120 H       1  UNL1        0.0636
     38 H           0.6461   -4.4718    0.1032 H       1  UNL1        0.0618
     39 H           2.3990   -3.2810    1.2146 H       1  UNL1        0.0620
     40 H           2.7823   -1.5395    2.8940 H       1  UNL1        0.0377
     41 H           2.0976    0.0536    2.5204 H       1  UNL1        0.0377
     42 H           6.3563   -1.9874    0.3658 H       1  UNL1        0.1921
     43 H           5.6662    1.9414   -1.9048 H       1  UNL1        0.0625
     44 H           3.9117    3.6145   -1.8739 H       1  UNL1        0.0618
     45 H           2.0480    3.2720   -0.3911 H       1  UNL1        0.0618
     46 H           1.8883    1.3509    1.0286 H       1  UNL1        0.0624
     47 H          -0.0532    0.0727    1.4728 H       1  UNL1        0.0639
@<TRIPOS>BOND
     1     1     2    2
     2     2     3    1
     3     2     4    1
     4     4     5   ar
     5     4     9   ar
     6     5     6   ar
     7     6     7   ar
     8     7     8   ar
     9     8     9   ar
    10     9    10    1
    11    10    11    2
    12    10    12   am
    13    12    13    1
    14    13    14   ar
    15    13    30   ar
    16    14    15   ar
    17    15    16   ar
    18    16    17   ar
    19    17    18    1
    20    17    30   ar
    21    18    19    1
    22    19    20   ar
    23    19    29   ar
    24    20    21   ar
    25    21    22   ar
    26    22    23    2
    27    22    24   ar
    28    24    25   ar
    29    24    29   ar
    30    25    26   ar
    31    26    27   ar
    32    27    28   ar
    33    28    29   ar
    34     3    31    1
    35     5    32    1
    36     6    33    1
    37     7    34    1
    38     8    35    1
    39    12    36    1
    40    14    37    1
    41    15    38    1
    42    16    39    1
    43    18    40    1
    44    18    41    1
    45    21    42    1
    46    25    43    1
    47    26    44    1
    48    27    45    1
    49    28    46    1
    50    30    47    1
@<TRIPOS>MOLECULE
../data/bude_mols_rdkit_confs2/molecule_81.pdb
 47 50 0 0 0
SMALL
GASTEIGER

@<TRIPOS>ATOM
      1  O1        -3.4360    2.1560   -0.0600 O.2     1  UNL1       -0.2451
      2  C1        -4.3860    1.9720    0.6670 C.2     1  UNL1        0.3375
      3  O2        -4.9500    3.0320    1.4170 O.3     1  UNL1       -0.4771
      4  C2        -5.0240    0.6340    0.8040 C.ar    1  UNL1        0.0709
      5  C3        -6.0860    0.5150    1.6940 C.ar    1  UNL1       -0.0470
      6  C4        -6.7110   -0.7090    1.8520 C.ar    1  UNL1       -0.0609
      7  C5        -6.2770   -1.7940    1.1280 C.ar    1  UNL1       -0.0610
      8  C6        -5.2260   -1.6530    0.2550 C.ar    1  UNL1       -0.0488
      9  C7        -4.5960   -0.4290    0.0950 C.ar    1  UNL1        0.0510
     10  C8        -3.4500   -0.3570   -0.8130 C.2     1  UNL1        0.2490
     11  O3        -3.5590    0.0790   -1.9770 O.2     1  UNL1       -0.2698
     12  N1        -2.1710   -0.8070   -0.3690 N.am    1  UNL1       -0.2815
     13  C9        -1.0060   -0.8110   -1.1670 C.ar    1  UNL1        0.0339
     14  C10       -0.9440   -1.7070   -2.2360 C.ar    1  UNL1       -0.0405
     15  C11        0.1640   -1.7770   -3.0410 C.ar    1  UNL1       -0.0597
     16  C12        1.2460   -0.9300   -2.7800 C.ar    1  UNL1       -0.0581
     17  C13        1.2190   -0.0340   -1.7410 C.ar    1  UNL1       -0.0398
     18  C14        2.3830    0.8800   -1.4110 C.3     1  UNL1        0.0172
     19  C15        3.0190    0.3440   -0.1890 C.ar    1  UNL1        0.0736
     20  N2         2.2980   -0.4290    0.6520 N.ar    1  UNL1       -0.1750
     21  N3         2.8210   -0.9280    1.7790 N.ar    1  UNL1       -0.2425
     22  C16        4.0950   -0.6790    2.1210 C.ar    1  UNL1        0.2725
     23  O4         4.5940   -1.1530    3.1960 O.2     1  UNL1       -0.2658
     24  C17        4.8740    0.0960    1.3050 C.ar    1  UNL1        0.0496
     25  C18        6.1690    0.3520    1.6570 C.ar    1  UNL1       -0.0487
     26  C19        6.9790    1.1330    0.8660 C.ar    1  UNL1       -0.0610
     27  C20        6.4380    1.6550   -0.3110 C.ar    1  UNL1       -0.0611
     28  C21        5.1260    1.3870   -0.6560 C.ar    1  UNL1       -0.0521
     29  C22        4.3180    0.6090    0.1370 C.ar    1  UNL1        0.0106
     30  C23        0.0780   -0.0100   -0.9650 C.ar    1  UNL1       -0.0369
     31 H          -5.6855    2.8716    1.9750 H       1  UNL1        0.2954
     32 H          -6.4058    1.3347    2.2332 H       1  UNL1        0.0626
     33 H          -7.4996   -0.8071    2.5105 H       1  UNL1        0.0618
     34 H          -6.7387   -2.7102    1.2399 H       1  UNL1        0.0618
     35 H          -4.9016   -2.4683   -0.2883 H       1  UNL1        0.0625
     36 H          -2.0956   -1.1368    0.5556 H       1  UNL1        0.1551
     37 H          -1.7466   -2.3279   -2.4238 H       1  UNL1        0.0636
     38 H           0.1989   -2.4444   -3.8273 H       1  UNL1        0.0618
     39 H           2.0828   -0.9800   -3.3819 H       1  UNL1        0.0620
     40 H           2.0309    1.8751   -1.2360 H       1  UNL1        0.0377
     41 H           3.0815    0.9170   -2.2207 H       1  UNL1        0.0377
     42 H           2.2622   -1.4866    2.3664 H       1  UNL1        0.1921
     43 H           6.5457   -0.0472    2.5309 H       1  UNL1        0.0625
     44 H           7.9565    1.3273    1.1340 H       1  UNL1        0.0618
     45 H           7.0205    2.2439   -0.9266 H       1  UNL1        0.0618
     46 H           4.7447    1.7810   -1.5303 H       1  UNL1        0.0624
     47 H           0.0433    0.6588   -0.1798 H       1  UNL1        0.0639
@<TRIPOS>BOND
     1     1     2    2
     2     2     3    1
     3     2     4    1
     4     4     5   ar
     5     4     9   ar
     6     5     6   ar
     7     6     7   ar
     8     7     8   ar
     9     8     9   ar
    10     9    10    1
    11    10    11    2
    12    10    12   am
    13    12    13    1
    14    13    14   ar
    15    13    30   ar
    16    14    15   ar
    17    15    16   ar
    18    16    17   ar
    19    17    18    1
    20    17    30   ar
    21    18    19    1
    22    19    20   ar
    23    19    29   ar
    24    20    21   ar
    25    21    22   ar
    26    22    23    2
    27    22    24   ar
    28    24    25   ar
    29    24    29   ar
    30    25    26   ar
    31    26    27   ar
    32    27    28   ar
    33    28    29   ar
    34     3    31    1
    35     5    32    1
    36     6    33    1
    37     7    34    1
    38     8    35    1
    39    12    36    1
    40    14    37    1
    41    15    38    1
    42    16    39    1
    43    18    40    1
    44    18    41    1
    45    21    42    1
    46    25    43    1
    47    26    44    1
    48    27    45    1
    49    28    46    1
    50    30    47    1
@<TRIPOS>MOLECULE
../data/bude_mols_rdkit_confs2/molecule_81.pdb
 47 50 0 0 0
SMALL
GASTEIGER

@<TRIPOS>ATOM
      1  O1        -2.2480   -0.3560    1.7910 O.2     1  UNL1       -0.2451
      2  C1        -3.2370    0.3460    2.0390 C.2     1  UNL1        0.3375
      3  O2        -3.1830    1.1060    3.2110 O.3     1  UNL1       -0.4771
      4  C2        -4.3850    0.3740    1.1570 C.ar    1  UNL1        0.0709
      5  C3        -5.5340    1.0350    1.6650 C.ar    1  UNL1       -0.0470
      6  C4        -6.6990    0.9910    0.9420 C.ar    1  UNL1       -0.0609
      7  C5        -6.7620    0.3160   -0.2610 C.ar    1  UNL1       -0.0610
      8  C6        -5.6310   -0.3160   -0.7340 C.ar    1  UNL1       -0.0488
      9  C7        -4.4180   -0.2860   -0.0150 C.ar    1  UNL1        0.0510
     10  C8        -3.2220   -0.8570   -0.6320 C.2     1  UNL1        0.2490
     11  O3        -3.3420   -2.0490   -1.0560 O.2     1  UNL1       -0.2698
     12  N1        -2.0140   -0.1900   -0.7810 N.am    1  UNL1       -0.2815
     13  C9        -0.8480   -0.7090   -1.3550 C.ar    1  UNL1        0.0339
     14  C10       -0.6900   -1.9670   -1.8570 C.ar    1  UNL1       -0.0405
     15  C11        0.5260   -2.4100   -2.4190 C.ar    1  UNL1       -0.0597
     16  C12        1.5920   -1.5520   -2.4670 C.ar    1  UNL1       -0.0581
     17  C13        1.4820   -0.2580   -1.9670 C.ar    1  UNL1       -0.0398
     18  C14        2.6950    0.5690   -2.0970 C.3     1  UNL1        0.0172
     19  C15        3.7150    0.1310   -1.1570 C.ar    1  UNL1        0.0736
     20  N2         4.6740   -0.7290   -1.6060 N.ar    1  UNL1       -0.1750
     21  N3         5.6090   -1.2190   -0.8450 N.ar    1  UNL1       -0.2425
     22  C16        5.6670   -0.8860    0.4440 C.ar    1  UNL1        0.2725
     23  O4         6.5600   -1.3450    1.2060 O.2     1  UNL1       -0.2658
     24  C17        4.7420   -0.0180    1.0050 C.ar    1  UNL1        0.0496
     25  C18        4.7820    0.3500    2.3140 C.ar    1  UNL1       -0.0487
     26  C19        3.8710    1.2240    2.8680 C.ar    1  UNL1       -0.0610
     27  C20        2.8950    1.7260    2.0330 C.ar    1  UNL1       -0.0611
     28  C21        2.8550    1.3470    0.6880 C.ar    1  UNL1       -0.0521
     29  C22        3.7570    0.4840    0.1520 C.ar    1  UNL1        0.0106
     30  C23        0.2850    0.1130   -1.4370 C.ar    1  UNL1       -0.0369
     31 H          -3.9046    1.6552    3.4469 H       1  UNL1        0.2954
     32 H          -5.4935    1.5405    2.5638 H       1  UNL1        0.0626
     33 H          -7.5398    1.4689    1.3021 H       1  UNL1        0.0618
     34 H          -7.6425    0.2849   -0.7983 H       1  UNL1        0.0618
     35 H          -5.6732   -0.8214   -1.6328 H       1  UNL1        0.0625
     36 H          -1.9735    0.7368   -0.4514 H       1  UNL1        0.1551
     37 H          -1.4893   -2.6190   -1.8247 H       1  UNL1        0.0636
     38 H           0.6110   -3.3694   -2.7895 H       1  UNL1        0.0618
     39 H           2.4847   -1.8677   -2.8775 H       1  UNL1        0.0620
     40 H           2.4475    1.5906   -1.8969 H       1  UNL1        0.0377
     41 H           3.0762    0.4691   -3.0918 H       1  UNL1        0.0377
     42 H           6.2754   -1.8375   -1.2227 H       1  UNL1        0.1921
     43 H           5.5236   -0.0405    2.9162 H       1  UNL1        0.0625
     44 H           3.9174    1.4908    3.8638 H       1  UNL1        0.0618
     45 H           2.1913    2.3842    2.4026 H       1  UNL1        0.0618
     46 H           2.1156    1.7357    0.0820 H       1  UNL1        0.0624
     47 H           0.2049    1.0730   -1.0670 H       1  UNL1        0.0639
@<TRIPOS>BOND
     1     1     2    2
     2     2     3    1
     3     2     4    1
     4     4     5   ar
     5     4     9   ar
     6     5     6   ar
     7     6     7   ar
     8     7     8   ar
     9     8     9   ar
    10     9    10    1
    11    10    11    2
    12    10    12   am
    13    12    13    1
    14    13    14   ar
    15    13    30   ar
    16    14    15   ar
    17    15    16   ar
    18    16    17   ar
    19    17    18    1
    20    17    30   ar
    21    18    19    1
    22    19    20   ar
    23    19    29   ar
    24    20    21   ar
    25    21    22   ar
    26    22    23    2
    27    22    24   ar
    28    24    25   ar
    29    24    29   ar
    30    25    26   ar
    31    26    27   ar
    32    27    28   ar
    33    28    29   ar
    34     3    31    1
    35     5    32    1
    36     6    33    1
    37     7    34    1
    38     8    35    1
    39    12    36    1
    40    14    37    1
    41    15    38    1
    42    16    39    1
    43    18    40    1
    44    18    41    1
    45    21    42    1
    46    25    43    1
    47    26    44    1
    48    27    45    1
    49    28    46    1
    50    30    47    1
@<TRIPOS>MOLECULE
../data/bude_mols_rdkit_confs2/molecule_81.pdb
 47 50 0 0 0
SMALL
GASTEIGER

@<TRIPOS>ATOM
      1  O1         3.4020    0.2160   -1.9360 O.2     1  UNL1       -0.2451
      2  C1         4.6310    0.4410   -1.7830 C.2     1  UNL1        0.3375
      3  O2         5.3330    0.9150   -2.8970 O.3     1  UNL1       -0.4771
      4  C2         5.3620    0.2420   -0.5440 C.ar    1  UNL1        0.0709
      5  C3         6.7320    0.5070   -0.4660 C.ar    1  UNL1       -0.0470
      6  C4         7.4810    0.3010    0.6690 C.ar    1  UNL1       -0.0609
      7  C5         6.7930   -0.1960    1.7580 C.ar    1  UNL1       -0.0610
      8  C6         5.4430   -0.4770    1.7410 C.ar    1  UNL1       -0.0488
      9  C7         4.7240   -0.2470    0.5600 C.ar    1  UNL1        0.0510
     10  C8         3.2670   -0.4380    0.5400 C.2     1  UNL1        0.2490
     11  O3         2.7650   -1.5780    0.5280 O.2     1  UNL1       -0.2698
     12  N1         2.3790    0.6570    0.5400 N.am    1  UNL1       -0.2815
     13  C9         0.9850    0.6760    0.5110 C.ar    1  UNL1        0.0339
     14  C10        0.3550    1.5760    1.3920 C.ar    1  UNL1       -0.0405
     15  C11       -0.9980    1.7270    1.3930 C.ar    1  UNL1       -0.0597
     16  C12       -1.7540    0.9820    0.5080 C.ar    1  UNL1       -0.0581
     17  C13       -1.1880    0.0900   -0.3730 C.ar    1  UNL1       -0.0398
     18  C14       -2.0160   -0.6660   -1.3440 C.3     1  UNL1        0.0172
     19  C15       -3.3940   -0.1510   -1.2620 C.ar    1  UNL1        0.0736
     20  N2        -3.7520    0.8100   -2.1670 N.ar    1  UNL1       -0.1750
     21  N3        -4.9400    1.3470   -2.1390 N.ar    1  UNL1       -0.2425
     22  C16       -5.9090    1.0340   -1.2610 C.ar    1  UNL1        0.2725
     23  O4        -7.0270    1.5670   -1.2660 O.2     1  UNL1       -0.2658
     24  C17       -5.5800    0.0620   -0.3310 C.ar    1  UNL1        0.0496
     25  C18       -6.5120   -0.3390    0.6040 C.ar    1  UNL1       -0.0487
     26  C19       -6.1730   -1.3210    1.5150 C.ar    1  UNL1       -0.0610
     27  C20       -4.9080   -1.9060    1.5010 C.ar    1  UNL1       -0.0611
     28  C21       -3.9800   -1.5090    0.5750 C.ar    1  UNL1       -0.0521
     29  C22       -4.3260   -0.5300   -0.3300 C.ar    1  UNL1        0.0106
     30  C23        0.2000   -0.0410   -0.3440 C.ar    1  UNL1       -0.0369
     31 H           6.2498    1.0966   -2.8305 H       1  UNL1        0.2954
     32 H           7.2067    0.8768   -1.3044 H       1  UNL1        0.0626
     33 H           8.4921    0.5048    0.7044 H       1  UNL1        0.0618
     34 H           7.3167   -0.3662    2.6308 H       1  UNL1        0.0618
     35 H           4.9719   -0.8489    2.5805 H       1  UNL1        0.0625
     36 H           2.8082    1.5427    0.5641 H       1  UNL1        0.1551
     37 H           0.9282    2.1300    2.0474 H       1  UNL1        0.0636
     38 H          -1.4516    2.3870    2.0439 H       1  UNL1        0.0618
     39 H          -2.7793    1.0990    0.5081 H       1  UNL1        0.0620
     40 H          -2.0021   -1.7077   -1.1000 H       1  UNL1        0.0377
     41 H          -1.6314   -0.5452   -2.3352 H       1  UNL1        0.0377
     42 H          -5.1432    2.0351   -2.8132 H       1  UNL1        0.1921
     43 H          -7.4508    0.0892    0.6227 H       1  UNL1        0.0625
     44 H          -6.8665   -1.6257    2.2159 H       1  UNL1        0.0618
     45 H          -4.6705   -2.6383    2.1883 H       1  UNL1        0.0618
     46 H          -3.0402   -1.9350    0.5558 H       1  UNL1        0.0624
     47 H           0.6501   -0.7049   -0.9933 H       1  UNL1        0.0639
@<TRIPOS>BOND
     1     1     2    2
     2     2     3    1
     3     2     4    1
     4     4     5   ar
     5     4     9   ar
     6     5     6   ar
     7     6     7   ar
     8     7     8   ar
     9     8     9   ar
    10     9    10    1
    11    10    11    2
    12    10    12   am
    13    12    13    1
    14    13    14   ar
    15    13    30   ar
    16    14    15   ar
    17    15    16   ar
    18    16    17   ar
    19    17    18    1
    20    17    30   ar
    21    18    19    1
    22    19    20   ar
    23    19    29   ar
    24    20    21   ar
    25    21    22   ar
    26    22    23    2
    27    22    24   ar
    28    24    25   ar
    29    24    29   ar
    30    25    26   ar
    31    26    27   ar
    32    27    28   ar
    33    28    29   ar
    34     3    31    1
    35     5    32    1
    36     6    33    1
    37     7    34    1
    38     8    35    1
    39    12    36    1
    40    14    37    1
    41    15    38    1
    42    16    39    1
    43    18    40    1
    44    18    41    1
    45    21    42    1
    46    25    43    1
    47    26    44    1
    48    27    45    1
    49    28    46    1
    50    30    47    1
@<TRIPOS>MOLECULE
../data/bude_mols_rdkit_confs2/molecule_81.pdb
 47 50 0 0 0
SMALL
GASTEIGER

@<TRIPOS>ATOM
      1  O1         4.3420   -1.0820    1.3550 O.2     1  UNL1       -0.2451
      2  C1         5.4280   -0.6600    0.8400 C.2     1  UNL1        0.3375
      3  O2         6.5820   -1.4150    1.0410 O.3     1  UNL1       -0.4771
      4  C2         5.4110    0.5780    0.0750 C.ar    1  UNL1        0.0709
      5  C3         6.6570    1.0020   -0.4110 C.ar    1  UNL1       -0.0470
      6  C4         6.7590    2.1930   -1.1090 C.ar    1  UNL1       -0.0609
      7  C5         5.6320    2.9630   -1.3250 C.ar    1  UNL1       -0.0610
      8  C6         4.4300    2.5280   -0.8420 C.ar    1  UNL1       -0.0488
      9  C7         4.2940    1.3370   -0.1400 C.ar    1  UNL1        0.0510
     10  C8         2.9950    0.8950    0.2930 C.2     1  UNL1        0.2490
     11  O3         2.3060    1.5540    1.1420 O.2     1  UNL1       -0.2698
     12  N1         2.4040   -0.2780   -0.1920 N.am    1  UNL1       -0.2815
     13  C9         1.1190   -0.7920    0.2160 C.ar    1  UNL1        0.0339
     14  C10        0.9260   -1.2360    1.5020 C.ar    1  UNL1       -0.0405
     15  C11       -0.2730   -1.7420    1.9420 C.ar    1  UNL1       -0.0597
     16  C12       -1.3530   -1.8110    1.0520 C.ar    1  UNL1       -0.0581
     17  C13       -1.2050   -1.3790   -0.2370 C.ar    1  UNL1       -0.0398
     18  C14       -2.2830   -1.4250   -1.2470 C.3     1  UNL1        0.0172
     19  C15       -3.2730   -0.3320   -1.1470 C.ar    1  UNL1        0.0736
     20  N2        -3.0670    0.8640   -1.7810 N.ar    1  UNL1       -0.1750
     21  N3        -3.9020    1.8930   -1.6520 N.ar    1  UNL1       -0.2425
     22  C16       -5.0120    1.8280   -0.8850 C.ar    1  UNL1        0.2725
     23  O4        -5.7890    2.8440   -0.7850 O.2     1  UNL1       -0.2658
     24  C17       -5.2930    0.6610   -0.2160 C.ar    1  UNL1        0.0496
     25  C18       -6.4260    0.5340    0.5590 C.ar    1  UNL1       -0.0487
     26  C19       -6.7270   -0.6580    1.2130 C.ar    1  UNL1       -0.0610
     27  C20       -5.8730   -1.7170    1.0770 C.ar    1  UNL1       -0.0611
     28  C21       -4.7510   -1.5710    0.3040 C.ar    1  UNL1       -0.0521
     29  C22       -4.3980   -0.4120   -0.3680 C.ar    1  UNL1        0.0106
     30  C23        0.0480   -0.8680   -0.6460 C.ar    1  UNL1       -0.0369
     31 H           7.3968   -1.1317    0.6753 H       1  UNL1        0.2954
     32 H           7.4976    0.4259   -0.2481 H       1  UNL1        0.0626
     33 H           7.6750    2.5053   -1.4674 H       1  UNL1        0.0618
     34 H           5.6971    3.8531   -1.8432 H       1  UNL1        0.0618
     35 H           3.5911    3.1065   -1.0050 H       1  UNL1        0.0625
     36 H           2.9051   -0.7930   -0.8650 H       1  UNL1        0.1551
     37 H           1.7151   -1.1873    2.1653 H       1  UNL1        0.0636
     38 H          -0.3770   -2.0672    2.9159 H       1  UNL1        0.0618
     39 H          -2.2599   -2.1877    1.3692 H       1  UNL1        0.0620
     40 H          -2.8014   -2.3547   -1.1384 H       1  UNL1        0.0377
     41 H          -1.8082   -1.3152   -2.1996 H       1  UNL1        0.0377
     42 H          -3.7037    2.7295   -2.1318 H       1  UNL1        0.1921
     43 H          -7.0643    1.3390    0.6565 H       1  UNL1        0.0625
     44 H          -7.5789   -0.7405    1.7896 H       1  UNL1        0.0618
     45 H          -6.0705   -2.6130    1.5495 H       1  UNL1        0.0618
     46 H          -4.1224   -2.3847    0.2159 H       1  UNL1        0.0624
     47 H           0.1633   -0.5426   -1.6185 H       1  UNL1        0.0639
@<TRIPOS>BOND
     1     1     2    2
     2     2     3    1
     3     2     4    1
     4     4     5   ar
     5     4     9   ar
     6     5     6   ar
     7     6     7   ar
     8     7     8   ar
     9     8     9   ar
    10     9    10    1
    11    10    11    2
    12    10    12   am
    13    12    13    1
    14    13    14   ar
    15    13    30   ar
    16    14    15   ar
    17    15    16   ar
    18    16    17   ar
    19    17    18    1
    20    17    30   ar
    21    18    19    1
    22    19    20   ar
    23    19    29   ar
    24    20    21   ar
    25    21    22   ar
    26    22    23    2
    27    22    24   ar
    28    24    25   ar
    29    24    29   ar
    30    25    26   ar
    31    26    27   ar
    32    27    28   ar
    33    28    29   ar
    34     3    31    1
    35     5    32    1
    36     6    33    1
    37     7    34    1
    38     8    35    1
    39    12    36    1
    40    14    37    1
    41    15    38    1
    42    16    39    1
    43    18    40    1
    44    18    41    1
    45    21    42    1
    46    25    43    1
    47    26    44    1
    48    27    45    1
    49    28    46    1
    50    30    47    1
@<TRIPOS>MOLECULE
../data/bude_mols_rdkit_confs2/molecule_81.pdb
 47 50 0 0 0
SMALL
GASTEIGER

@<TRIPOS>ATOM
      1  O1         5.4530   -2.6440   -0.9900 O.2     1  UNL1       -0.2451
      2  C1         4.5610   -1.7510   -0.7980 C.2     1  UNL1        0.3375
      3  O2         3.2620   -2.2090   -0.7880 O.3     1  UNL1       -0.4771
      4  C2         4.9950   -0.3900   -0.6230 C.ar    1  UNL1        0.0709
      5  C3         6.3430   -0.0840   -0.8800 C.ar    1  UNL1       -0.0470
      6  C4         6.8380    1.1960   -0.8570 C.ar    1  UNL1       -0.0609
      7  C5         5.9710    2.2440   -0.5680 C.ar    1  UNL1       -0.0610
      8  C6         4.6550    1.9510   -0.3150 C.ar    1  UNL1       -0.0488
      9  C7         4.1500    0.6390   -0.3360 C.ar    1  UNL1        0.0510
     10  C8         2.7550    0.4180    0.0750 C.2     1  UNL1        0.2490
     11  O3         1.8890    1.1200   -0.4770 O.2     1  UNL1       -0.2698
     12  N1         2.4460   -0.5320    1.0430 N.am    1  UNL1       -0.2815
     13  C9         1.1550   -0.8360    1.5070 C.ar    1  UNL1        0.0339
     14  C10        1.0610   -1.9240    2.3750 C.ar    1  UNL1       -0.0405
     15  C11       -0.1710   -2.2620    2.8670 C.ar    1  UNL1       -0.0597
     16  C12       -1.2890   -1.5530    2.5200 C.ar    1  UNL1       -0.0581
     17  C13       -1.2510   -0.4720    1.6680 C.ar    1  UNL1       -0.0398
     18  C14       -2.3800    0.3440    1.2430 C.3     1  UNL1        0.0172
     19  C15       -3.0860   -0.1410    0.0460 C.ar    1  UNL1        0.0736
     20  N2        -2.8030   -1.2810   -0.6060 N.ar    1  UNL1       -0.1750
     21  N3        -3.4590   -1.6850   -1.6720 N.ar    1  UNL1       -0.2425
     22  C16       -4.4670   -0.9520   -2.1630 C.ar    1  UNL1        0.2725
     23  O4        -5.1100   -1.3230   -3.1870 O.2     1  UNL1       -0.2658
     24  C17       -4.8350    0.2350   -1.5650 C.ar    1  UNL1        0.0496
     25  C18       -5.8680    0.9930   -2.0660 C.ar    1  UNL1       -0.0487
     26  C19       -6.2290    2.1860   -1.4580 C.ar    1  UNL1       -0.0610
     27  C20       -5.5240    2.5810   -0.3450 C.ar    1  UNL1       -0.0611
     28  C21       -4.4870    1.8300    0.1650 C.ar    1  UNL1       -0.0521
     29  C22       -4.1190    0.6310   -0.4410 C.ar    1  UNL1        0.0106
     30  C23        0.0240   -0.1420    1.1750 C.ar    1  UNL1       -0.0369
     31 H           2.5549   -1.6094   -0.6524 H       1  UNL1        0.2954
     32 H           6.9905   -0.8580   -1.0960 H       1  UNL1        0.0626
     33 H           7.8353    1.3773   -1.0506 H       1  UNL1        0.0618
     34 H           6.3094    3.2187   -0.5444 H       1  UNL1        0.0618
     35 H           4.0084    2.7262   -0.1002 H       1  UNL1        0.0625
     36 H           3.1958   -1.0342    1.4366 H       1  UNL1        0.1551
     37 H           1.9009   -2.4618    2.6402 H       1  UNL1        0.0636
     38 H          -0.2581   -3.0645    3.5100 H       1  UNL1        0.0618
     39 H          -2.1987   -1.8406    2.9134 H       1  UNL1        0.0620
     40 H          -2.0177    1.3296    1.0375 H       1  UNL1        0.0377
     41 H          -3.0904    0.3089    2.0424 H       1  UNL1        0.0377
     42 H          -3.2081   -2.5298   -2.1110 H       1  UNL1        0.1921
     43 H          -6.3793    0.6707   -2.9025 H       1  UNL1        0.0625
     44 H          -7.0025    2.7596   -1.8291 H       1  UNL1        0.0618
     45 H          -5.7789    3.4654    0.1218 H       1  UNL1        0.0618
     46 H          -3.9797    2.1582    1.0016 H       1  UNL1        0.0624
     47 H           0.1104    0.6612    0.5328 H       1  UNL1        0.0639
@<TRIPOS>BOND
     1     1     2    2
     2     2     3    1
     3     2     4    1
     4     4     5   ar
     5     4     9   ar
     6     5     6   ar
     7     6     7   ar
     8     7     8   ar
     9     8     9   ar
    10     9    10    1
    11    10    11    2
    12    10    12   am
    13    12    13    1
    14    13    14   ar
    15    13    30   ar
    16    14    15   ar
    17    15    16   ar
    18    16    17   ar
    19    17    18    1
    20    17    30   ar
    21    18    19    1
    22    19    20   ar
    23    19    29   ar
    24    20    21   ar
    25    21    22   ar
    26    22    23    2
    27    22    24   ar
    28    24    25   ar
    29    24    29   ar
    30    25    26   ar
    31    26    27   ar
    32    27    28   ar
    33    28    29   ar
    34     3    31    1
    35     5    32    1
    36     6    33    1
    37     7    34    1
    38     8    35    1
    39    12    36    1
    40    14    37    1
    41    15    38    1
    42    16    39    1
    43    18    40    1
    44    18    41    1
    45    21    42    1
    46    25    43    1
    47    26    44    1
    48    27    45    1
    49    28    46    1
    50    30    47    1
@<TRIPOS>MOLECULE
../data/bude_mols_rdkit_confs2/molecule_81.pdb
 47 50 0 0 0
SMALL
GASTEIGER

@<TRIPOS>ATOM
      1  O1         4.9000    1.5540    2.7160 O.2     1  UNL1       -0.2451
      2  C1         4.1980    0.9750    1.8310 C.2     1  UNL1        0.3375
      3  O2         2.8420    1.1420    1.8620 O.3     1  UNL1       -0.4771
      4  C2         4.8720    0.1700    0.8480 C.ar    1  UNL1        0.0709
      5  C3         6.2330   -0.1180    1.0170 C.ar    1  UNL1       -0.0470
      6  C4         6.8980   -0.9700    0.1740 C.ar    1  UNL1       -0.0609
      7  C5         6.2520   -1.5650   -0.8580 C.ar    1  UNL1       -0.0610
      8  C6         4.9200   -1.3080   -1.0600 C.ar    1  UNL1       -0.0488
      9  C7         4.2470   -0.4270   -0.1860 C.ar    1  UNL1        0.0510
     10  C8         2.8700   -0.1290   -0.5800 C.2     1  UNL1        0.2490
     11  O3         2.1640   -1.1400   -0.8210 O.2     1  UNL1       -0.2698
     12  N1         2.2940    1.1420   -0.7120 N.am    1  UNL1       -0.2815
     13  C9         0.9680    1.4650   -1.0680 C.ar    1  UNL1        0.0339
     14  C10        0.6680    2.7770   -1.4600 C.ar    1  UNL1       -0.0405
     15  C11       -0.5980    3.1870   -1.8070 C.ar    1  UNL1       -0.0597
     16  C12       -1.6190    2.2480   -1.7630 C.ar    1  UNL1       -0.0581
     17  C13       -1.3870    0.9480   -1.3870 C.ar    1  UNL1       -0.0398
     18  C14       -2.4880   -0.0440   -1.3390 C.3     1  UNL1        0.0172
     19  C15       -3.0930   -0.0340   -0.0030 C.ar    1  UNL1        0.0736
     20  N2        -2.7530    0.9350    0.8680 N.ar    1  UNL1       -0.1750
     21  N3        -3.2220    1.0620    2.0750 N.ar    1  UNL1       -0.2425
     22  C16       -4.1120    0.1810    2.5180 C.ar    1  UNL1        0.2725
     23  O4        -4.5710    0.2990    3.6890 O.2     1  UNL1       -0.2658
     24  C17       -4.5160   -0.8330    1.7100 C.ar    1  UNL1        0.0496
     25  C18       -5.4460   -1.7830    2.1350 C.ar    1  UNL1       -0.0487
     26  C19       -5.8360   -2.8020    1.2990 C.ar    1  UNL1       -0.0610
     27  C20       -5.3160   -2.8970    0.0360 C.ar    1  UNL1       -0.0611
     28  C21       -4.3970   -1.9590   -0.3870 C.ar    1  UNL1       -0.0521
     29  C22       -4.0150   -0.9530    0.4470 C.ar    1  UNL1        0.0106
     30  C23       -0.0690    0.5780   -1.0400 C.ar    1  UNL1       -0.0369
     31 H           2.3037    0.7242    1.2188 H       1  UNL1        0.2954
     32 H           6.7475    0.3224    1.7957 H       1  UNL1        0.0626
     33 H           7.9007   -1.1603    0.3268 H       1  UNL1        0.0618
     34 H           6.7587   -2.2069   -1.4874 H       1  UNL1        0.0618
     35 H           4.4154   -1.7537   -1.8421 H       1  UNL1        0.0625
     36 H           2.8899    1.9052   -0.5338 H       1  UNL1        0.1551
     37 H           1.4337    3.4682   -1.4896 H       1  UNL1        0.0636
     38 H          -0.7829    4.1618   -2.0910 H       1  UNL1        0.0618
     39 H          -2.5768    2.5341   -2.0194 H       1  UNL1        0.0620
     40 H          -2.0998   -1.0189   -1.5481 H       1  UNL1        0.0377
     41 H          -3.2286    0.2075   -2.0692 H       1  UNL1        0.0377
     42 H          -2.9214    1.8009    2.6520 H       1  UNL1        0.1921
     43 H          -5.8442   -1.7198    3.0850 H       1  UNL1        0.0625
     44 H          -6.5240   -3.4988    1.6249 H       1  UNL1        0.0618
     45 H          -5.6082   -3.6616   -0.5925 H       1  UNL1        0.0618
     46 H          -3.9985   -2.0200   -1.3370 H       1  UNL1        0.0624
     47 H           0.1164   -0.3965   -0.7555 H       1  UNL1        0.0639
@<TRIPOS>BOND
     1     1     2    2
     2     2     3    1
     3     2     4    1
     4     4     5   ar
     5     4     9   ar
     6     5     6   ar
     7     6     7   ar
     8     7     8   ar
     9     8     9   ar
    10     9    10    1
    11    10    11    2
    12    10    12   am
    13    12    13    1
    14    13    14   ar
    15    13    30   ar
    16    14    15   ar
    17    15    16   ar
    18    16    17   ar
    19    17    18    1
    20    17    30   ar
    21    18    19    1
    22    19    20   ar
    23    19    29   ar
    24    20    21   ar
    25    21    22   ar
    26    22    23    2
    27    22    24   ar
    28    24    25   ar
    29    24    29   ar
    30    25    26   ar
    31    26    27   ar
    32    27    28   ar
    33    28    29   ar
    34     3    31    1
    35     5    32    1
    36     6    33    1
    37     7    34    1
    38     8    35    1
    39    12    36    1
    40    14    37    1
    41    15    38    1
    42    16    39    1
    43    18    40    1
    44    18    41    1
    45    21    42    1
    46    25    43    1
    47    26    44    1
    48    27    45    1
    49    28    46    1
    50    30    47    1
@<TRIPOS>MOLECULE
../data/bude_mols_rdkit_confs2/molecule_81.pdb
 47 50 0 0 0
SMALL
GASTEIGER

@<TRIPOS>ATOM
      1  O1        -4.2080   -1.2830   -1.4860 O.2     1  UNL1       -0.2451
      2  C1        -5.1640   -0.4640   -1.5030 C.2     1  UNL1        0.3375
      3  O2        -6.0410   -0.5170   -2.6140 O.3     1  UNL1       -0.4771
      4  C2        -5.4330    0.5230   -0.4780 C.ar    1  UNL1        0.0709
      5  C3        -6.6730    1.1720   -0.5370 C.ar    1  UNL1       -0.0470
      6  C4        -7.0730    2.0150    0.4620 C.ar    1  UNL1       -0.0609
      7  C5        -6.2390    2.2230    1.5370 C.ar    1  UNL1       -0.0610
      8  C6        -5.0250    1.5870    1.5890 C.ar    1  UNL1       -0.0488
      9  C7        -4.5920    0.7160    0.5690 C.ar    1  UNL1        0.0510
     10  C8        -3.2550    0.1930    0.6410 C.2     1  UNL1        0.2490
     11  O3        -2.8090   -0.2890    1.7640 O.2     1  UNL1       -0.2698
     12  N1        -2.2960    0.1350   -0.3950 N.am    1  UNL1       -0.2815
     13  C9        -0.9830   -0.4190   -0.1940 C.ar    1  UNL1        0.0339
     14  C10       -0.6410   -1.5950   -0.8190 C.ar    1  UNL1       -0.0405
     15  C11        0.6390   -2.1230   -0.6390 C.ar    1  UNL1       -0.0597
     16  C12        1.5790   -1.4720    0.1680 C.ar    1  UNL1       -0.0581
     17  C13        1.2240   -0.3060    0.7790 C.ar    1  UNL1       -0.0398
     18  C14        2.2170    0.4080    1.6120 C.3     1  UNL1        0.0172
     19  C15        3.5740   -0.1390    1.5270 C.ar    1  UNL1        0.0736
     20  N2         4.1110   -0.7720    2.5830 N.ar    1  UNL1       -0.1750
     21  N3         5.3330   -1.2460    2.5580 N.ar    1  UNL1       -0.2425
     22  C16        6.1270   -1.1400    1.5040 C.ar    1  UNL1        0.2725
     23  O4         7.3100   -1.5760    1.4250 O.2     1  UNL1       -0.2658
     24  C17        5.6210   -0.4940    0.3840 C.ar    1  UNL1        0.0496
     25  C18        6.3740   -0.3450   -0.7670 C.ar    1  UNL1       -0.0487
     26  C19        5.8660    0.2850   -1.8770 C.ar    1  UNL1       -0.0610
     27  C20        4.5780    0.7770   -1.8340 C.ar    1  UNL1       -0.0611
     28  C21        3.8270    0.6320   -0.6920 C.ar    1  UNL1       -0.0521
     29  C22        4.3480    0.0030    0.4010 C.ar    1  UNL1        0.0106
     30  C23       -0.0510    0.2140    0.5970 C.ar    1  UNL1       -0.0369
     31 H          -6.7659    0.0743   -2.6673 H       1  UNL1        0.2954
     32 H          -7.2933    1.0115   -1.3460 H       1  UNL1        0.0626
     33 H          -7.9882    2.4892    0.4108 H       1  UNL1        0.0618
     34 H          -6.5260    2.8549    2.3008 H       1  UNL1        0.0618
     35 H          -4.4091    1.7514    2.4006 H       1  UNL1        0.0625
     36 H          -2.5338    0.4852   -1.2838 H       1  UNL1        0.1551
     37 H          -1.3255   -2.0839   -1.4169 H       1  UNL1        0.0636
     38 H           0.8956   -3.0059   -1.1077 H       1  UNL1        0.0618
     39 H           2.5234   -1.8672    0.2982 H       1  UNL1        0.0620
     40 H           1.8979    0.3579    2.6321 H       1  UNL1        0.0377
     41 H           2.2652    1.4110    1.2426 H       1  UNL1        0.0377
     42 H           5.6761   -1.7019    3.3603 H       1  UNL1        0.1921
     43 H           7.3372   -0.7148   -0.7922 H       1  UNL1        0.0625
     44 H           6.4387    0.3885   -2.7293 H       1  UNL1        0.0618
     45 H           4.1789    1.2532   -2.6580 H       1  UNL1        0.0618
     46 H           2.8637    1.0009   -0.6611 H       1  UNL1        0.0624
     47 H          -0.3060    1.0969    1.0665 H       1  UNL1        0.0639
@<TRIPOS>BOND
     1     1     2    2
     2     2     3    1
     3     2     4    1
     4     4     5   ar
     5     4     9   ar
     6     5     6   ar
     7     6     7   ar
     8     7     8   ar
     9     8     9   ar
    10     9    10    1
    11    10    11    2
    12    10    12   am
    13    12    13    1
    14    13    14   ar
    15    13    30   ar
    16    14    15   ar
    17    15    16   ar
    18    16    17   ar
    19    17    18    1
    20    17    30   ar
    21    18    19    1
    22    19    20   ar
    23    19    29   ar
    24    20    21   ar
    25    21    22   ar
    26    22    23    2
    27    22    24   ar
    28    24    25   ar
    29    24    29   ar
    30    25    26   ar
    31    26    27   ar
    32    27    28   ar
    33    28    29   ar
    34     3    31    1
    35     5    32    1
    36     6    33    1
    37     7    34    1
    38     8    35    1
    39    12    36    1
    40    14    37    1
    41    15    38    1
    42    16    39    1
    43    18    40    1
    44    18    41    1
    45    21    42    1
    46    25    43    1
    47    26    44    1
    48    27    45    1
    49    28    46    1
    50    30    47    1
@<TRIPOS>MOLECULE
../data/bude_mols_rdkit_confs2/molecule_81.pdb
 47 50 0 0 0
SMALL
GASTEIGER

@<TRIPOS>ATOM
      1  O1         4.5710   -2.5460   -1.9350 O.2     1  UNL1       -0.2451
      2  C1         3.9180   -1.5320   -1.5400 C.2     1  UNL1        0.3375
      3  O2         2.5860   -1.7630   -1.2790 O.3     1  UNL1       -0.4771
      4  C2         4.5860   -0.2700   -1.4090 C.ar    1  UNL1        0.0709
      5  C3         5.8810   -0.1620   -1.9300 C.ar    1  UNL1       -0.0470
      6  C4         6.5790    1.0220   -1.9680 C.ar    1  UNL1       -0.0609
      7  C5         5.9610    2.1590   -1.4610 C.ar    1  UNL1       -0.0610
      8  C6         4.6950    2.0400   -0.9520 C.ar    1  UNL1       -0.0488
      9  C7         3.9870    0.8330   -0.9120 C.ar    1  UNL1        0.0510
     10  C8         2.6910    0.8510   -0.2070 C.2     1  UNL1        0.2490
     11  O3         1.9050    1.7720   -0.5160 O.2     1  UNL1       -0.2698
     12  N1         2.3050   -0.0800    0.7710 N.am    1  UNL1       -0.2815
     13  C9         1.0730   -0.1320    1.4690 C.ar    1  UNL1        0.0339
     14  C10        1.0260   -1.0620    2.5220 C.ar    1  UNL1       -0.0405
     15  C11       -0.0900   -1.2590    3.2990 C.ar    1  UNL1       -0.0597
     16  C12       -1.2070   -0.4850    3.0020 C.ar    1  UNL1       -0.0581
     17  C13       -1.1990    0.4300    1.9870 C.ar    1  UNL1       -0.0398
     18  C14       -2.3840    1.2460    1.6860 C.3     1  UNL1        0.0172
     19  C15       -3.0300    1.0090    0.4050 C.ar    1  UNL1        0.0736
     20  N2        -2.7120    1.8380   -0.6440 N.ar    1  UNL1       -0.1750
     21  N3        -3.2200    1.6930   -1.8470 N.ar    1  UNL1       -0.2425
     22  C16       -4.0900    0.7240   -2.1520 C.ar    1  UNL1        0.2725
     23  O4        -4.5680    0.6090   -3.3350 O.2     1  UNL1       -0.2658
     24  C17       -4.4610   -0.1500   -1.1530 C.ar    1  UNL1        0.0496
     25  C18       -5.3660   -1.1490   -1.4370 C.ar    1  UNL1       -0.0487
     26  C19       -5.7520   -2.0170   -0.4440 C.ar    1  UNL1       -0.0610
     27  C20       -5.2020   -1.8480    0.8320 C.ar    1  UNL1       -0.0611
     28  C21       -4.2980   -0.8480    1.1110 C.ar    1  UNL1       -0.0521
     29  C22       -3.9150    0.0100    0.1270 C.ar    1  UNL1        0.0106
     30  C23       -0.0390    0.6030    1.2130 C.ar    1  UNL1       -0.0369
     31 H           2.0382   -1.0627   -0.9833 H       1  UNL1        0.2954
     32 H           6.3331   -1.0113   -2.3032 H       1  UNL1        0.0626
     33 H           7.5323    1.0651   -2.3608 H       1  UNL1        0.0618
     34 H           6.4443    3.0708   -1.4679 H       1  UNL1        0.0618
     35 H           4.2382    2.8862   -0.5776 H       1  UNL1        0.0625
     36 H           2.9648   -0.7748    0.9971 H       1  UNL1        0.1551
     37 H           1.8691   -1.6230    2.7208 H       1  UNL1        0.0636
     38 H          -0.0991   -1.9486    4.0667 H       1  UNL1        0.0618
     39 H          -2.0647   -0.6050    3.5632 H       1  UNL1        0.0620
     40 H          -2.0863    2.2734    1.7142 H       1  UNL1        0.0377
     41 H          -3.1098    0.9716    2.4228 H       1  UNL1        0.0377
     42 H          -2.9491    2.3235   -2.5529 H       1  UNL1        0.1921
     43 H          -5.7516   -1.2449   -2.3894 H       1  UNL1        0.0625
     44 H          -6.4288   -2.7726   -0.6338 H       1  UNL1        0.0618
     45 H          -5.4829   -2.4930    1.5870 H       1  UNL1        0.0618
     46 H          -3.9122   -0.7495    2.0631 H       1  UNL1        0.0624
     47 H          -0.0325    1.2929    0.4455 H       1  UNL1        0.0639
@<TRIPOS>BOND
     1     1     2    2
     2     2     3    1
     3     2     4    1
     4     4     5   ar
     5     4     9   ar
     6     5     6   ar
     7     6     7   ar
     8     7     8   ar
     9     8     9   ar
    10     9    10    1
    11    10    11    2
    12    10    12   am
    13    12    13    1
    14    13    14   ar
    15    13    30   ar
    16    14    15   ar
    17    15    16   ar
    18    16    17   ar
    19    17    18    1
    20    17    30   ar
    21    18    19    1
    22    19    20   ar
    23    19    29   ar
    24    20    21   ar
    25    21    22   ar
    26    22    23    2
    27    22    24   ar
    28    24    25   ar
    29    24    29   ar
    30    25    26   ar
    31    26    27   ar
    32    27    28   ar
    33    28    29   ar
    34     3    31    1
    35     5    32    1
    36     6    33    1
    37     7    34    1
    38     8    35    1
    39    12    36    1
    40    14    37    1
    41    15    38    1
    42    16    39    1
    43    18    40    1
    44    18    41    1
    45    21    42    1
    46    25    43    1
    47    26    44    1
    48    27    45    1
    49    28    46    1
    50    30    47    1
@<TRIPOS>MOLECULE
../data/bude_mols_rdkit_confs2/molecule_81.pdb
 47 50 0 0 0
SMALL
GASTEIGER

@<TRIPOS>ATOM
      1  O1         2.4580    0.2360   -2.0140 O.2     1  UNL1       -0.2451
      2  C1         3.6480   -0.0710   -2.1510 C.2     1  UNL1        0.3375
      3  O2         4.2950    0.3410   -3.3380 O.3     1  UNL1       -0.4771
      4  C2         4.4620   -0.8250   -1.1980 C.ar    1  UNL1        0.0709
      5  C3         5.7440   -1.2530   -1.5810 C.ar    1  UNL1       -0.0470
      6  C4         6.4730   -2.0540   -0.7520 C.ar    1  UNL1       -0.0609
      7  C5         5.9400   -2.4380    0.4640 C.ar    1  UNL1       -0.0610
      8  C6         4.6880   -2.0150    0.8360 C.ar    1  UNL1       -0.0488
      9  C7         3.9300   -1.1890   -0.0100 C.ar    1  UNL1        0.0510
     10  C8         2.6630   -0.7040    0.5610 C.2     1  UNL1        0.2490
     11  O3         1.9120   -1.5860    1.0590 O.2     1  UNL1       -0.2698
     12  N1         2.2460    0.6310    0.5980 N.am    1  UNL1       -0.2815
     13  C9         1.0370    1.1530    1.1100 C.ar    1  UNL1        0.0339
     14  C10        0.9840    2.5350    1.3070 C.ar    1  UNL1       -0.0405
     15  C11       -0.1610    3.1140    1.7890 C.ar    1  UNL1       -0.0597
     16  C12       -1.2570    2.3370    2.0790 C.ar    1  UNL1       -0.0581
     17  C13       -1.2500    0.9610    1.8990 C.ar    1  UNL1       -0.0398
     18  C14       -2.4790    0.2320    2.2680 C.3     1  UNL1        0.0172
     19  C15       -3.6190    0.4720    1.3470 C.ar    1  UNL1        0.0736
     20  N2        -4.5250    1.4010    1.6980 N.ar    1  UNL1       -0.1750
     21  N3        -5.5450    1.7210    0.9450 N.ar    1  UNL1       -0.2425
     22  C16       -5.7360    1.1210   -0.2400 C.ar    1  UNL1        0.2725
     23  O4        -6.7120    1.4160   -0.9790 O.2     1  UNL1       -0.2658
     24  C17       -4.8710    0.1580   -0.6910 C.ar    1  UNL1        0.0496
     25  C18       -5.0280   -0.4940   -1.8900 C.ar    1  UNL1       -0.0487
     26  C19       -4.1330   -1.4640   -2.2900 C.ar    1  UNL1       -0.0610
     27  C20       -3.0700   -1.7700   -1.4590 C.ar    1  UNL1       -0.0611
     28  C21       -2.9010   -1.1170   -0.2430 C.ar    1  UNL1       -0.0521
     29  C22       -3.7900   -0.1640    0.1370 C.ar    1  UNL1        0.0106
     30  C23       -0.0870    0.4160    1.4150 C.ar    1  UNL1       -0.0369
     31 H           5.1965    0.1276   -3.4785 H       1  UNL1        0.2954
     32 H           6.1346   -0.9611   -2.4905 H       1  UNL1        0.0626
     33 H           7.4149   -2.3708   -1.0304 H       1  UNL1        0.0618
     34 H           6.4856   -3.0454    1.0952 H       1  UNL1        0.0618
     35 H           4.2999   -2.3070    1.7466 H       1  UNL1        0.0625
     36 H           2.8734    1.2889    0.2201 H       1  UNL1        0.1551
     37 H           1.8063    3.1195    1.0898 H       1  UNL1        0.0636
     38 H          -0.2002    4.1350    1.9344 H       1  UNL1        0.0618
     39 H          -2.1104    2.7903    2.4413 H       1  UNL1        0.0620
     40 H          -2.7699    0.5376    3.2513 H       1  UNL1        0.0377
     41 H          -2.2497   -0.8117    2.2139 H       1  UNL1        0.0377
     42 H          -6.1793    2.4091    1.2506 H       1  UNL1        0.1921
     43 H          -5.8259   -0.2548   -2.4992 H       1  UNL1        0.0625
     44 H          -4.2538   -1.9519   -3.1913 H       1  UNL1        0.0618
     45 H          -2.3924   -2.4936   -1.7459 H       1  UNL1        0.0618
     46 H          -2.1039   -1.3556    0.3674 H       1  UNL1        0.0624
     47 H          -0.0521   -0.6053    1.2710 H       1  UNL1        0.0639
@<TRIPOS>BOND
     1     1     2    2
     2     2     3    1
     3     2     4    1
     4     4     5   ar
     5     4     9   ar
     6     5     6   ar
     7     6     7   ar
     8     7     8   ar
     9     8     9   ar
    10     9    10    1
    11    10    11    2
    12    10    12   am
    13    12    13    1
    14    13    14   ar
    15    13    30   ar
    16    14    15   ar
    17    15    16   ar
    18    16    17   ar
    19    17    18    1
    20    17    30   ar
    21    18    19    1
    22    19    20   ar
    23    19    29   ar
    24    20    21   ar
    25    21    22   ar
    26    22    23    2
    27    22    24   ar
    28    24    25   ar
    29    24    29   ar
    30    25    26   ar
    31    26    27   ar
    32    27    28   ar
    33    28    29   ar
    34     3    31    1
    35     5    32    1
    36     6    33    1
    37     7    34    1
    38     8    35    1
    39    12    36    1
    40    14    37    1
    41    15    38    1
    42    16    39    1
    43    18    40    1
    44    18    41    1
    45    21    42    1
    46    25    43    1
    47    26    44    1
    48    27    45    1
    49    28    46    1
    50    30    47    1
@<TRIPOS>MOLECULE
../data/bude_mols_rdkit_confs2/molecule_81.pdb
 47 50 0 0 0
SMALL
GASTEIGER

@<TRIPOS>ATOM
      1  O1        -4.5340    2.4180   -2.4140 O.2     1  UNL1       -0.2451
      2  C1        -4.1240    1.8940   -1.3200 C.2     1  UNL1        0.3375
      3  O2        -2.7960    1.9140   -1.0790 O.3     1  UNL1       -0.4771
      4  C2        -5.1110    1.3310   -0.4290 C.ar    1  UNL1        0.0709
      5  C3        -6.4650    1.5840   -0.6820 C.ar    1  UNL1       -0.0470
      6  C4        -7.4270    1.1870    0.2000 C.ar    1  UNL1       -0.0609
      7  C5        -7.0530    0.5300    1.3510 C.ar    1  UNL1       -0.0610
      8  C6        -5.7240    0.2800    1.5990 C.ar    1  UNL1       -0.0488
      9  C7        -4.7100    0.6770    0.7050 C.ar    1  UNL1        0.0510
     10  C8        -3.3640    0.2320    1.0190 C.2     1  UNL1        0.2490
     11  O3        -2.9490    0.3990    2.2290 O.2     1  UNL1       -0.2698
     12  N1        -2.4520   -0.3780    0.1560 N.am    1  UNL1       -0.2815
     13  C9        -1.1300   -0.8100    0.5330 C.ar    1  UNL1        0.0339
     14  C10       -0.7960   -1.1790    1.8060 C.ar    1  UNL1       -0.0405
     15  C11        0.5070   -1.5600    2.0760 C.ar    1  UNL1       -0.0597
     16  C12        1.4730   -1.5750    1.1010 C.ar    1  UNL1       -0.0581
     17  C13        1.1410   -1.2020   -0.1830 C.ar    1  UNL1       -0.0398
     18  C14        2.1200   -1.2070   -1.2940 C.3     1  UNL1        0.0172
     19  C15        3.5250   -1.2880   -0.8760 C.ar    1  UNL1        0.0736
     20  N2         4.2230   -2.4350   -1.0680 N.ar    1  UNL1       -0.1750
     21  N3         5.4900   -2.5590   -0.7390 N.ar    1  UNL1       -0.2425
     22  C16        6.1740   -1.5300   -0.1820 C.ar    1  UNL1        0.2725
     23  O4         7.3920   -1.6860    0.1200 O.2     1  UNL1       -0.2658
     24  C17        5.5490   -0.3190    0.0550 C.ar    1  UNL1        0.0496
     25  C18        6.2320    0.7430    0.6260 C.ar    1  UNL1       -0.0487
     26  C19        5.5580    1.9190    0.8390 C.ar    1  UNL1       -0.0610
     27  C20        4.2330    2.0100    0.4840 C.ar    1  UNL1       -0.0611
     28  C21        3.5530    0.9540   -0.0850 C.ar    1  UNL1       -0.0521
     29  C22        4.2050   -0.2330   -0.3100 C.ar    1  UNL1        0.0106
     30  C23       -0.1610   -0.8240   -0.4480 C.ar    1  UNL1       -0.0369
     31 H          -2.4575    1.5404   -0.2892 H       1  UNL1        0.2954
     32 H          -6.7384    2.0769   -1.5465 H       1  UNL1        0.0626
     33 H          -8.4229    1.3767    0.0070 H       1  UNL1        0.0618
     34 H          -7.7703    0.2253    2.0275 H       1  UNL1        0.0618
     35 H          -5.4612   -0.2135    2.4664 H       1  UNL1        0.0625
     36 H          -2.7319   -0.5234   -0.7766 H       1  UNL1        0.1551
     37 H          -1.5055   -1.1736    2.5554 H       1  UNL1        0.0636
     38 H           0.7591   -1.8405    3.0366 H       1  UNL1        0.0618
     39 H           2.4379   -1.8627    1.3274 H       1  UNL1        0.0620
     40 H           1.9911   -0.3052   -1.8553 H       1  UNL1        0.0377
     41 H           1.9239   -2.0908   -1.8643 H       1  UNL1        0.0377
     42 H           5.9499   -3.4144   -0.9001 H       1  UNL1        0.1921
     43 H           7.2266    0.6513    0.8856 H       1  UNL1        0.0625
     44 H           6.0410    2.7272    1.2615 H       1  UNL1        0.0618
     45 H           3.7314    2.8968    0.6486 H       1  UNL1        0.0618
     46 H           2.5583    1.0555   -0.3406 H       1  UNL1        0.0624
     47 H          -0.4159   -0.5440   -1.4080 H       1  UNL1        0.0639
@<TRIPOS>BOND
     1     1     2    2
     2     2     3    1
     3     2     4    1
     4     4     5   ar
     5     4     9   ar
     6     5     6   ar
     7     6     7   ar
     8     7     8   ar
     9     8     9   ar
    10     9    10    1
    11    10    11    2
    12    10    12   am
    13    12    13    1
    14    13    14   ar
    15    13    30   ar
    16    14    15   ar
    17    15    16   ar
    18    16    17   ar
    19    17    18    1
    20    17    30   ar
    21    18    19    1
    22    19    20   ar
    23    19    29   ar
    24    20    21   ar
    25    21    22   ar
    26    22    23    2
    27    22    24   ar
    28    24    25   ar
    29    24    29   ar
    30    25    26   ar
    31    26    27   ar
    32    27    28   ar
    33    28    29   ar
    34     3    31    1
    35     5    32    1
    36     6    33    1
    37     7    34    1
    38     8    35    1
    39    12    36    1
    40    14    37    1
    41    15    38    1
    42    16    39    1
    43    18    40    1
    44    18    41    1
    45    21    42    1
    46    25    43    1
    47    26    44    1
    48    27    45    1
    49    28    46    1
    50    30    47    1
