@<TRIPOS>MOLECULE
../data/bude_mols_rdkit_confs2/molecule_88.pdb
 47 49 0 0 0
SMALL
GASTEIGER

@<TRIPOS>ATOM
      1  N1        -4.8710   -1.4760   -1.4410 N.pl3   1  UNL1       -0.3543
      2  C1        -5.6420   -0.6900   -0.5500 C.ar    1  UNL1        0.0829
      3  C2        -6.6580    0.1280   -1.0160 C.ar    1  UNL1        0.1458
      4  F1        -6.8590    0.1160   -2.3610 F       1  UNL1       -0.2035
      5  C3        -7.4210    0.9110   -0.1870 C.ar    1  UNL1       -0.0245
      6  C4        -7.1670    0.8820    1.1600 C.ar    1  UNL1       -0.0571
      7  C5        -6.1630    0.0730    1.6190 C.ar    1  UNL1       -0.0374
      8  C6        -5.3750   -0.7330    0.7770 C.ar    1  UNL1        0.0714
      9  N2        -4.3840   -1.5130    1.4220 N.pl3   1  UNL1       -0.2144
     10  S1        -2.8620   -1.9380    0.7970 S.O2    1  UNL1        0.0724
     11  O1        -2.8550   -2.9040   -0.3160 O.2     1  UNL1       -0.1500
     12  O2        -2.0660   -2.6340    1.9240 O.2     1  UNL1       -0.1500
     13  C7        -1.9170   -0.4810    0.4680 C.ar    1  UNL1        0.1092
     14  C8        -2.4940    0.7660    0.4920 C.ar    1  UNL1       -0.0350
     15  C9        -1.8010    1.9230    0.2140 C.ar    1  UNL1       -0.0592
     16  C10       -0.4860    1.8230   -0.1000 C.ar    1  UNL1       -0.0495
     17  C11        0.1480    0.5920   -0.1410 C.ar    1  UNL1        0.0400
     18  C12        1.5520    0.5820   -0.5060 C.2     1  UNL1        0.2602
     19  O3         1.8290    0.1100   -1.6640 O.2     1  UNL1       -0.2687
     20  N3         2.6200    1.0430    0.2970 N.am    1  UNL1       -0.2301
     21  N4         3.9580    0.9810   -0.1990 N.am    1  UNL1       -0.2300
     22  C13        4.8450   -0.0280    0.2350 C.2     1  UNL1        0.2629
     23  O4         4.3660   -0.8520    1.0930 O.2     1  UNL1       -0.2686
     24  C14        6.2190   -0.2180   -0.1840 C.ar    1  UNL1        0.0733
     25  C15        6.9620   -1.1940    0.4910 C.ar    1  UNL1       -0.0468
     26  C16        8.2640   -1.4660    0.1880 C.ar    1  UNL1       -0.0609
     27  C17        8.8590   -0.7540   -0.8150 C.ar    1  UNL1       -0.0590
     28  C18        8.1580    0.2040   -1.4880 C.ar    1  UNL1       -0.0257
     29  C19        6.8280    0.4920   -1.1900 C.ar    1  UNL1        0.1355
     30  F2         6.1630    1.4290   -1.8770 F       1  UNL1       -0.2047
     31  C20       -0.5800   -0.5390    0.1450 C.ar    1  UNL1       -0.0229
     32 H          -5.0580   -1.4511   -2.4073 H       1  UNL1        0.1425
     33 H          -4.1481   -2.0473   -1.0941 H       1  UNL1        0.1425
     34 H          -8.1702    1.5091   -0.5692 H       1  UNL1        0.0647
     35 H          -7.7208    1.4576    1.8135 H       1  UNL1        0.0619
     36 H          -5.9745    0.0532    2.6334 H       1  UNL1        0.0637
     37 H          -4.5989   -1.8425    2.3245 H       1  UNL1        0.1737
     38 H          -3.4955    0.8389    0.7300 H       1  UNL1        0.0637
     39 H          -2.2702    2.8417    0.2439 H       1  UNL1        0.0618
     40 H           0.0516    2.6780   -0.3120 H       1  UNL1        0.0625
     41 H           2.4423    1.4055    1.1949 H       1  UNL1        0.1731
     42 H           4.2657    1.6505   -0.8519 H       1  UNL1        0.1731
     43 H           6.5069   -1.7286    1.2474 H       1  UNL1        0.0626
     44 H           8.7865   -2.1914    0.7035 H       1  UNL1        0.0618
     45 H           9.8426   -0.9415   -1.0646 H       1  UNL1        0.0618
     46 H           8.6275    0.7313   -2.2407 H       1  UNL1        0.0646
     47 H          -0.1106   -1.4576    0.1167 H       1  UNL1        0.0645
@<TRIPOS>BOND
     1     1     2    1
     2     2     3   ar
     3     2     8   ar
     4     3     4    1
     5     3     5   ar
     6     5     6   ar
     7     6     7   ar
     8     7     8   ar
     9     8     9    1
    10     9    10    1
    11    10    11    2
    12    10    12    2
    13    10    13    1
    14    13    14   ar
    15    13    31   ar
    16    14    15   ar
    17    15    16   ar
    18    16    17   ar
    19    17    18    1
    20    17    31   ar
    21    18    19    2
    22    18    20   am
    23    20    21    1
    24    21    22   am
    25    22    23    2
    26    22    24    1
    27    24    25   ar
    28    24    29   ar
    29    25    26   ar
    30    26    27   ar
    31    27    28   ar
    32    28    29   ar
    33    29    30    1
    34     1    32    1
    35     1    33    1
    36     5    34    1
    37     6    35    1
    38     7    36    1
    39     9    37    1
    40    14    38    1
    41    15    39    1
    42    16    40    1
    43    20    41    1
    44    21    42    1
    45    25    43    1
    46    26    44    1
    47    27    45    1
    48    28    46    1
    49    31    47    1
@<TRIPOS>MOLECULE
../data/bude_mols_rdkit_confs2/molecule_88.pdb
 47 49 0 0 0
SMALL
GASTEIGER

@<TRIPOS>ATOM
      1  N1        -5.0280    3.0150   -0.0150 N.pl3   1  UNL1       -0.3543
      2  C1        -5.5330    1.6870    0.0130 C.ar    1  UNL1        0.0829
      3  C2        -6.5280    1.3730    0.9240 C.ar    1  UNL1        0.1458
      4  F1        -6.9890    2.3300    1.7610 F       1  UNL1       -0.2035
      5  C3        -7.0520    0.1150    0.9920 C.ar    1  UNL1       -0.0245
      6  C4        -6.5880   -0.8690    0.1410 C.ar    1  UNL1       -0.0571
      7  C5        -5.6030   -0.5370   -0.7550 C.ar    1  UNL1       -0.0374
      8  C6        -5.0450    0.7190   -0.8590 C.ar    1  UNL1        0.0714
      9  N2        -4.0400    1.0670   -1.7920 N.pl3   1  UNL1       -0.2144
     10  S1        -2.9580   -0.0760   -2.4790 S.O2    1  UNL1        0.0724
     11  O1        -2.0390    0.6040   -3.4610 O.2     1  UNL1       -0.1500
     12  O2        -3.7840   -1.0940   -3.2190 O.2     1  UNL1       -0.1500
     13  C7        -1.9560   -0.8330   -1.2580 C.ar    1  UNL1        0.1092
     14  C8        -2.3550   -1.9260   -0.5170 C.ar    1  UNL1       -0.0350
     15  C9        -1.5500   -2.5240    0.4350 C.ar    1  UNL1       -0.0592
     16  C10       -0.2690   -2.0400    0.6950 C.ar    1  UNL1       -0.0495
     17  C11        0.1310   -0.9490   -0.0440 C.ar    1  UNL1        0.0400
     18  C12        1.4810   -0.4230    0.1800 C.2     1  UNL1        0.2602
     19  O3         1.8860    0.5960   -0.4690 O.2     1  UNL1       -0.2687
     20  N3         2.4070   -0.9790    1.0920 N.am    1  UNL1       -0.2301
     21  N4         3.7030   -0.4240    1.2490 N.am    1  UNL1       -0.2300
     22  C13        4.5990   -0.4580    0.1640 C.2     1  UNL1        0.2629
     23  O4         4.1580   -1.0060   -0.9000 O.2     1  UNL1       -0.2686
     24  C14        5.9440    0.0820    0.2210 C.ar    1  UNL1        0.0733
     25  C15        6.8280   -0.2180   -0.8300 C.ar    1  UNL1       -0.0468
     26  C16        8.1280    0.2220   -0.8640 C.ar    1  UNL1       -0.0609
     27  C17        8.6420    0.9980    0.1510 C.ar    1  UNL1       -0.0590
     28  C18        7.7920    1.3010    1.1840 C.ar    1  UNL1       -0.0257
     29  C19        6.4580    0.8530    1.2270 C.ar    1  UNL1        0.1355
     30  F2         5.6730    1.2010    2.2730 F       1  UNL1       -0.2047
     31  C20       -0.6860   -0.3670   -0.9870 C.ar    1  UNL1       -0.0229
     32 H          -5.3827    3.6898    0.6080 H       1  UNL1        0.1425
     33 H          -4.3234    3.2603   -0.6574 H       1  UNL1        0.1425
     34 H          -7.7929   -0.1006    1.6773 H       1  UNL1        0.0647
     35 H          -6.9711   -1.8265    0.1779 H       1  UNL1        0.0619
     36 H          -5.2586   -1.2736   -1.3905 H       1  UNL1        0.0637
     37 H          -3.9569    2.0105   -2.0605 H       1  UNL1        0.1737
     38 H          -3.2968   -2.3149   -0.6806 H       1  UNL1        0.0637
     39 H          -1.9024   -3.3396    0.9601 H       1  UNL1        0.0618
     40 H           0.3450   -2.4747    1.4014 H       1  UNL1        0.0625
     41 H           2.1483   -1.7640    1.6268 H       1  UNL1        0.1731
     42 H           3.9722   -0.0203    2.1056 H       1  UNL1        0.1731
     43 H           6.4837   -0.7960   -1.6126 H       1  UNL1        0.0626
     44 H           8.7296   -0.0328   -1.6629 H       1  UNL1        0.0618
     45 H           9.6175    1.3345    0.1352 H       1  UNL1        0.0618
     46 H           8.1447    1.8810    1.9613 H       1  UNL1        0.0646
     47 H          -0.3348    0.4495   -1.5115 H       1  UNL1        0.0645
@<TRIPOS>BOND
     1     1     2    1
     2     2     3   ar
     3     2     8   ar
     4     3     4    1
     5     3     5   ar
     6     5     6   ar
     7     6     7   ar
     8     7     8   ar
     9     8     9    1
    10     9    10    1
    11    10    11    2
    12    10    12    2
    13    10    13    1
    14    13    14   ar
    15    13    31   ar
    16    14    15   ar
    17    15    16   ar
    18    16    17   ar
    19    17    18    1
    20    17    31   ar
    21    18    19    2
    22    18    20   am
    23    20    21    1
    24    21    22   am
    25    22    23    2
    26    22    24    1
    27    24    25   ar
    28    24    29   ar
    29    25    26   ar
    30    26    27   ar
    31    27    28   ar
    32    28    29   ar
    33    29    30    1
    34     1    32    1
    35     1    33    1
    36     5    34    1
    37     6    35    1
    38     7    36    1
    39     9    37    1
    40    14    38    1
    41    15    39    1
    42    16    40    1
    43    20    41    1
    44    21    42    1
    45    25    43    1
    46    26    44    1
    47    27    45    1
    48    28    46    1
    49    31    47    1
@<TRIPOS>MOLECULE
../data/bude_mols_rdkit_confs2/molecule_88.pdb
 47 49 0 0 0
SMALL
GASTEIGER

@<TRIPOS>ATOM
      1  N1        -4.5900   -2.4630   -1.4420 N.pl3   1  UNL1       -0.3543
      2  C1        -5.2500   -1.5490   -0.5620 C.ar    1  UNL1        0.0829
      3  C2        -6.1550   -1.9950    0.3820 C.ar    1  UNL1        0.1458
      4  F1        -6.3860   -3.3360    0.4210 F       1  UNL1       -0.2035
      5  C3        -6.7460   -1.0770    1.1940 C.ar    1  UNL1       -0.0245
      6  C4        -6.4700    0.2730    1.1040 C.ar    1  UNL1       -0.0571
      7  C5        -5.5640    0.6830    0.1520 C.ar    1  UNL1       -0.0374
      8  C6        -4.9500   -0.2150   -0.6830 C.ar    1  UNL1        0.0714
      9  N2        -4.0190    0.2210   -1.6800 N.pl3   1  UNL1       -0.2144
     10  S1        -3.0570    1.6380   -1.4950 S.O2    1  UNL1        0.0724
     11  O1        -3.9260    2.8560   -1.3810 O.2     1  UNL1       -0.1500
     12  O2        -2.1790    1.8360   -2.7000 O.2     1  UNL1       -0.1500
     13  C7        -2.0020    1.4540   -0.1060 C.ar    1  UNL1        0.1092
     14  C8        -2.4350    1.8390    1.1280 C.ar    1  UNL1       -0.0350
     15  C9        -1.5660    1.6800    2.1910 C.ar    1  UNL1       -0.0592
     16  C10       -0.3110    1.1530    2.0020 C.ar    1  UNL1       -0.0495
     17  C11        0.1210    0.7660    0.7510 C.ar    1  UNL1        0.0400
     18  C12        1.4410    0.2280    0.5020 C.2     1  UNL1        0.2602
     19  O3         1.7230   -0.1190   -0.6930 O.2     1  UNL1       -0.2687
     20  N3         2.4390    0.0660    1.5000 N.am    1  UNL1       -0.2301
     21  N4         3.6630   -0.4680    1.0370 N.am    1  UNL1       -0.2300
     22  C13        4.5540    0.2640    0.2420 C.2     1  UNL1        0.2629
     23  O4         4.1170    1.4680    0.0040 O.2     1  UNL1       -0.2686
     24  C14        5.8200   -0.1350   -0.3100 C.ar    1  UNL1        0.0733
     25  C15        6.6110    0.7700   -1.0250 C.ar    1  UNL1       -0.0468
     26  C16        7.8220    0.4240   -1.5720 C.ar    1  UNL1       -0.0609
     27  C17        8.3090   -0.8570   -1.4320 C.ar    1  UNL1       -0.0590
     28  C18        7.5580   -1.7670   -0.7380 C.ar    1  UNL1       -0.0257
     29  C19        6.3220   -1.3920   -0.1860 C.ar    1  UNL1        0.1355
     30  F2         5.6470   -2.3600    0.4830 F       1  UNL1       -0.2047
     31  C20       -0.7420    0.9230   -0.3030 C.ar    1  UNL1       -0.0229
     32 H          -4.7807   -3.4271   -1.3836 H       1  UNL1        0.1425
     33 H          -3.9450   -2.1281   -2.1061 H       1  UNL1        0.1425
     34 H          -7.4239   -1.4008    1.9015 H       1  UNL1        0.0647
     35 H          -6.9284    0.9530    1.7305 H       1  UNL1        0.0619
     36 H          -5.3423    1.6871    0.0649 H       1  UNL1        0.0637
     37 H          -3.9250   -0.3101   -2.5036 H       1  UNL1        0.1737
     38 H          -3.3782    2.2351    1.2637 H       1  UNL1        0.0637
     39 H          -1.8634    1.9606    3.1386 H       1  UNL1        0.0618
     40 H           0.3199    1.0449    2.8115 H       1  UNL1        0.0625
     41 H           2.2894    0.3074    2.4426 H       1  UNL1        0.1731
     42 H           3.8988   -1.3916    1.2832 H       1  UNL1        0.1731
     43 H           6.2708    1.7367   -1.1464 H       1  UNL1        0.0626
     44 H           8.3704    1.1276   -2.0909 H       1  UNL1        0.0618
     45 H           9.2182   -1.1242   -1.8406 H       1  UNL1        0.0618
     46 H           7.9015   -2.7330   -0.6198 H       1  UNL1        0.0646
     47 H          -0.4477    0.6421   -1.2514 H       1  UNL1        0.0645
@<TRIPOS>BOND
     1     1     2    1
     2     2     3   ar
     3     2     8   ar
     4     3     4    1
     5     3     5   ar
     6     5     6   ar
     7     6     7   ar
     8     7     8   ar
     9     8     9    1
    10     9    10    1
    11    10    11    2
    12    10    12    2
    13    10    13    1
    14    13    14   ar
    15    13    31   ar
    16    14    15   ar
    17    15    16   ar
    18    16    17   ar
    19    17    18    1
    20    17    31   ar
    21    18    19    2
    22    18    20   am
    23    20    21    1
    24    21    22   am
    25    22    23    2
    26    22    24    1
    27    24    25   ar
    28    24    29   ar
    29    25    26   ar
    30    26    27   ar
    31    27    28   ar
    32    28    29   ar
    33    29    30    1
    34     1    32    1
    35     1    33    1
    36     5    34    1
    37     6    35    1
    38     7    36    1
    39     9    37    1
    40    14    38    1
    41    15    39    1
    42    16    40    1
    43    20    41    1
    44    21    42    1
    45    25    43    1
    46    26    44    1
    47    27    45    1
    48    28    46    1
    49    31    47    1
@<TRIPOS>MOLECULE
../data/bude_mols_rdkit_confs2/molecule_88.pdb
 47 49 0 0 0
SMALL
GASTEIGER

@<TRIPOS>ATOM
      1  N1        -6.3560    2.0130   -1.4100 N.pl3   1  UNL1       -0.3543
      2  C1        -6.0040    0.6880   -0.9630 C.ar    1  UNL1        0.0829
      3  C2        -6.9110   -0.3500   -1.0290 C.ar    1  UNL1        0.1458
      4  F1        -8.1590   -0.1610   -1.5150 F       1  UNL1       -0.2035
      5  C3        -6.5920   -1.6210   -0.6060 C.ar    1  UNL1       -0.0245
      6  C4        -5.3320   -1.8620   -0.1050 C.ar    1  UNL1       -0.0571
      7  C5        -4.4160   -0.8090   -0.0400 C.ar    1  UNL1       -0.0374
      8  C6        -4.7260    0.4560   -0.4570 C.ar    1  UNL1        0.0714
      9  N2        -3.8470    1.5530   -0.4380 N.pl3   1  UNL1       -0.2144
     10  S1        -2.9740    2.0120    0.9440 S.O2    1  UNL1        0.0724
     11  O1        -3.9190    2.3810    2.0890 O.2     1  UNL1       -0.1500
     12  O2        -2.1380    3.2460    0.6000 O.2     1  UNL1       -0.1500
     13  C7        -1.8670    0.8250    1.5520 C.ar    1  UNL1        0.1092
     14  C8        -2.2470    0.0640    2.6480 C.ar    1  UNL1       -0.0350
     15  C9        -1.3510   -0.8850    3.1200 C.ar    1  UNL1       -0.0592
     16  C10       -0.1230   -1.0720    2.5270 C.ar    1  UNL1       -0.0495
     17  C11        0.2580   -0.3170    1.4370 C.ar    1  UNL1        0.0400
     18  C12        1.5740   -0.5290    0.8070 C.2     1  UNL1        0.2602
     19  O3         2.3200   -1.4740    1.2090 O.2     1  UNL1       -0.2687
     20  N3         2.0700    0.2700   -0.2410 N.am    1  UNL1       -0.2301
     21  N4         3.3500    0.0220   -0.8170 N.am    1  UNL1       -0.2300
     22  C13        4.5060    0.0270   -0.0150 C.2     1  UNL1        0.2629
     23  O4         4.2880    0.2680    1.2360 O.2     1  UNL1       -0.2686
     24  C14        5.8680   -0.2070   -0.4600 C.ar    1  UNL1        0.0733
     25  C15        6.9040   -0.2880    0.4840 C.ar    1  UNL1       -0.0468
     26  C16        8.2020   -0.5160    0.1070 C.ar    1  UNL1       -0.0609
     27  C17        8.5320   -0.6730   -1.2180 C.ar    1  UNL1       -0.0590
     28  C18        7.5100   -0.5920   -2.1400 C.ar    1  UNL1       -0.0257
     29  C19        6.1790   -0.3600   -1.7750 C.ar    1  UNL1        0.1355
     30  F2         5.2970   -0.3020   -2.7870 F       1  UNL1       -0.2047
     31  C20       -0.6170    0.6260    0.9580 C.ar    1  UNL1       -0.0229
     32 H          -7.2557    2.1885   -1.7692 H       1  UNL1        0.1425
     33 H          -5.6966    2.7421   -1.3560 H       1  UNL1        0.1425
     34 H          -7.2869   -2.3818   -0.6636 H       1  UNL1        0.0647
     35 H          -5.0684   -2.8062    0.2176 H       1  UNL1        0.0619
     36 H          -3.4725   -0.9922    0.3358 H       1  UNL1        0.0637
     37 H          -3.7326    2.0784   -1.2627 H       1  UNL1        0.1737
     38 H          -3.1660    0.1992    3.0977 H       1  UNL1        0.0637
     39 H          -1.6113   -1.4635    3.9340 H       1  UNL1        0.0618
     40 H           0.5207   -1.7859    2.9025 H       1  UNL1        0.0625
     41 H           1.5226    1.0137   -0.5822 H       1  UNL1        0.1731
     42 H           3.4257   -0.1540   -1.7827 H       1  UNL1        0.1731
     43 H           6.6831   -0.1732    1.4855 H       1  UNL1        0.0626
     44 H           8.9400   -0.5704    0.8263 H       1  UNL1        0.0618
     45 H           9.5064   -0.8448   -1.5112 H       1  UNL1        0.0618
     46 H           7.7358   -0.7072   -3.1404 H       1  UNL1        0.0646
     47 H          -0.3469    1.1993    0.1435 H       1  UNL1        0.0645
@<TRIPOS>BOND
     1     1     2    1
     2     2     3   ar
     3     2     8   ar
     4     3     4    1
     5     3     5   ar
     6     5     6   ar
     7     6     7   ar
     8     7     8   ar
     9     8     9    1
    10     9    10    1
    11    10    11    2
    12    10    12    2
    13    10    13    1
    14    13    14   ar
    15    13    31   ar
    16    14    15   ar
    17    15    16   ar
    18    16    17   ar
    19    17    18    1
    20    17    31   ar
    21    18    19    2
    22    18    20   am
    23    20    21    1
    24    21    22   am
    25    22    23    2
    26    22    24    1
    27    24    25   ar
    28    24    29   ar
    29    25    26   ar
    30    26    27   ar
    31    27    28   ar
    32    28    29   ar
    33    29    30    1
    34     1    32    1
    35     1    33    1
    36     5    34    1
    37     6    35    1
    38     7    36    1
    39     9    37    1
    40    14    38    1
    41    15    39    1
    42    16    40    1
    43    20    41    1
    44    21    42    1
    45    25    43    1
    46    26    44    1
    47    27    45    1
    48    28    46    1
    49    31    47    1
@<TRIPOS>MOLECULE
../data/bude_mols_rdkit_confs2/molecule_88.pdb
 47 49 0 0 0
SMALL
GASTEIGER

@<TRIPOS>ATOM
      1  N1        -6.6870   -0.8100    0.4410 N.pl3   1  UNL1       -0.3543
      2  C1        -5.8760    0.3650    0.3450 C.ar    1  UNL1        0.0829
      3  C2        -6.3870    1.5650   -0.1130 C.ar    1  UNL1        0.1458
      4  F1        -7.7020    1.6250   -0.4730 F       1  UNL1       -0.2035
      5  C3        -5.5520    2.6650   -0.1920 C.ar    1  UNL1       -0.0245
      6  C4        -4.2220    2.6020    0.1720 C.ar    1  UNL1       -0.0571
      7  C5        -3.7070    1.4290    0.6230 C.ar    1  UNL1       -0.0374
      8  C6        -4.5440    0.3130    0.7070 C.ar    1  UNL1        0.0714
      9  N2        -3.9400   -0.8500    1.2410 N.pl3   1  UNL1       -0.2144
     10  S1        -3.3990   -2.1150    0.2320 S.O2    1  UNL1        0.0724
     11  O1        -2.8350   -3.1970    1.1530 O.2     1  UNL1       -0.1500
     12  O2        -4.5710   -2.7790   -0.4550 O.2     1  UNL1       -0.1500
     13  C7        -2.1770   -1.6670   -0.9050 C.ar    1  UNL1        0.1092
     14  C8        -2.3420   -1.8450   -2.2820 C.ar    1  UNL1       -0.0350
     15  C9        -1.3620   -1.4460   -3.1760 C.ar    1  UNL1       -0.0592
     16  C10       -0.1920   -0.8600   -2.7420 C.ar    1  UNL1       -0.0495
     17  C11       -0.0400   -0.6880   -1.3900 C.ar    1  UNL1        0.0400
     18  C12        1.1570   -0.0300   -0.9210 C.2     1  UNL1        0.2602
     19  O3         1.0490    1.2150   -0.6360 O.2     1  UNL1       -0.2687
     20  N3         2.3750   -0.7150   -0.7800 N.am    1  UNL1       -0.2301
     21  N4         3.4770   -0.0020   -0.3150 N.am    1  UNL1       -0.2300
     22  C13        4.6660   -0.6390    0.1070 C.2     1  UNL1        0.2629
     23  O4         4.6560   -1.9030    0.0340 O.2     1  UNL1       -0.2686
     24  C14        5.8210    0.0920    0.5940 C.ar    1  UNL1        0.0733
     25  C15        6.7820   -0.5650    1.3930 C.ar    1  UNL1       -0.0468
     26  C16        7.8710    0.0870    1.9190 C.ar    1  UNL1       -0.0609
     27  C17        8.0690    1.4300    1.6820 C.ar    1  UNL1       -0.0590
     28  C18        7.1520    2.0800    0.9120 C.ar    1  UNL1       -0.0257
     29  C19        6.0420    1.4150    0.3750 C.ar    1  UNL1        0.1355
     30  F2         5.2130    2.1650   -0.3910 F       1  UNL1       -0.2047
     31  C20       -1.0020   -1.0800   -0.4910 C.ar    1  UNL1       -0.0229
     32 H          -7.6366   -0.7751    0.1835 H       1  UNL1        0.1425
     33 H          -6.2954   -1.6533    0.7646 H       1  UNL1        0.1425
     34 H          -5.9352    3.5603   -0.5336 H       1  UNL1        0.0647
     35 H          -3.6235    3.4398    0.1020 H       1  UNL1        0.0619
     36 H          -2.7148    1.3629    0.8989 H       1  UNL1        0.0637
     37 H          -3.8296   -0.9309    2.2159 H       1  UNL1        0.1737
     38 H          -3.2073   -2.2804   -2.6378 H       1  UNL1        0.0637
     39 H          -1.5107   -1.5903   -4.1870 H       1  UNL1        0.0618
     40 H           0.5392   -0.5631   -3.4070 H       1  UNL1        0.0625
     41 H           2.4475   -1.6711   -1.0033 H       1  UNL1        0.1731
     42 H           3.4261    0.9805   -0.2789 H       1  UNL1        0.1731
     43 H           6.6621   -1.5711    1.5889 H       1  UNL1        0.0626
     44 H           8.5479   -0.4345    2.4977 H       1  UNL1        0.0618
     45 H           8.8842    1.9265    2.0744 H       1  UNL1        0.0618
     46 H           7.2781    3.0861    0.7198 H       1  UNL1        0.0646
     47 H          -0.8405   -0.9312    0.5174 H       1  UNL1        0.0645
@<TRIPOS>BOND
     1     1     2    1
     2     2     3   ar
     3     2     8   ar
     4     3     4    1
     5     3     5   ar
     6     5     6   ar
     7     6     7   ar
     8     7     8   ar
     9     8     9    1
    10     9    10    1
    11    10    11    2
    12    10    12    2
    13    10    13    1
    14    13    14   ar
    15    13    31   ar
    16    14    15   ar
    17    15    16   ar
    18    16    17   ar
    19    17    18    1
    20    17    31   ar
    21    18    19    2
    22    18    20   am
    23    20    21    1
    24    21    22   am
    25    22    23    2
    26    22    24    1
    27    24    25   ar
    28    24    29   ar
    29    25    26   ar
    30    26    27   ar
    31    27    28   ar
    32    28    29   ar
    33    29    30    1
    34     1    32    1
    35     1    33    1
    36     5    34    1
    37     6    35    1
    38     7    36    1
    39     9    37    1
    40    14    38    1
    41    15    39    1
    42    16    40    1
    43    20    41    1
    44    21    42    1
    45    25    43    1
    46    26    44    1
    47    27    45    1
    48    28    46    1
    49    31    47    1
@<TRIPOS>MOLECULE
../data/bude_mols_rdkit_confs2/molecule_88.pdb
 47 49 0 0 0
SMALL
GASTEIGER

@<TRIPOS>ATOM
      1  N1        -4.3160   -0.1780    3.1750 N.pl3   1  UNL1       -0.3543
      2  C1        -4.8380   -0.7140    1.9810 C.ar    1  UNL1        0.0829
      3  C2        -5.3010   -2.0090    1.9690 C.ar    1  UNL1        0.1458
      4  F1        -5.2620   -2.7690    3.0830 F       1  UNL1       -0.2035
      5  C3        -5.8040   -2.4960    0.7770 C.ar    1  UNL1       -0.0245
      6  C4        -5.8550   -1.7390   -0.3730 C.ar    1  UNL1       -0.0571
      7  C5        -5.3740   -0.4400   -0.3010 C.ar    1  UNL1       -0.0374
      8  C6        -4.8640    0.0980    0.8500 C.ar    1  UNL1        0.0714
      9  N2        -4.3870    1.4110    0.9590 N.pl3   1  UNL1       -0.2144
     10  S1        -3.5060    2.1410   -0.3120 S.O2    1  UNL1        0.0724
     11  O1        -3.4680    1.2030   -1.4830 O.2     1  UNL1       -0.1500
     12  O2        -4.2270    3.3930   -0.7190 O.2     1  UNL1       -0.1500
     13  C7        -1.8490    2.4610    0.1420 C.ar    1  UNL1        0.1092
     14  C8        -1.5130    3.6620    0.7250 C.ar    1  UNL1       -0.0350
     15  C9        -0.2330    3.9750    1.1050 C.ar    1  UNL1       -0.0592
     16  C10        0.8030    3.0560    0.9060 C.ar    1  UNL1       -0.0495
     17  C11        0.4990    1.8490    0.3270 C.ar    1  UNL1        0.0400
     18  C12        1.5150    0.8410    0.0880 C.2     1  UNL1        0.2602
     19  O3         1.2260   -0.2530   -0.5070 O.2     1  UNL1       -0.2687
     20  N3         2.8480    0.9930    0.4830 N.am    1  UNL1       -0.2301
     21  N4         3.8360    0.0120    0.2500 N.am    1  UNL1       -0.2300
     22  C13        4.1110   -0.3530   -1.0870 C.2     1  UNL1        0.2629
     23  O4         3.4410    0.2330   -2.0060 O.2     1  UNL1       -0.2686
     24  C14        5.0960   -1.3390   -1.4520 C.ar    1  UNL1        0.0733
     25  C15        5.2480   -1.6810   -2.8000 C.ar    1  UNL1       -0.0468
     26  C16        6.1500   -2.6020   -3.2110 C.ar    1  UNL1       -0.0609
     27  C17        6.9610   -3.2450   -2.2990 C.ar    1  UNL1       -0.0590
     28  C18        6.8490   -2.9450   -0.9690 C.ar    1  UNL1       -0.0257
     29  C19        5.9110   -1.9910   -0.5710 C.ar    1  UNL1        0.1355
     30  F2         5.8660   -1.7500    0.7530 F       1  UNL1       -0.2047
     31  C20       -0.8260    1.5630   -0.0500 C.ar    1  UNL1       -0.0229
     32 H          -4.2853   -0.7294    3.9900 H       1  UNL1        0.1425
     33 H          -3.9820    0.7479    3.1942 H       1  UNL1        0.1425
     34 H          -6.1555   -3.4658    0.7474 H       1  UNL1        0.0647
     35 H          -6.2356   -2.1228   -1.2521 H       1  UNL1        0.0619
     36 H          -5.4017    0.1453   -1.1505 H       1  UNL1        0.0637
     37 H          -4.5621    1.9223    1.7819 H       1  UNL1        0.1737
     38 H          -2.2581    4.3583    0.8833 H       1  UNL1        0.0637
     39 H          -0.0336    4.8901    1.5385 H       1  UNL1        0.0618
     40 H           1.7704    3.2797    1.1871 H       1  UNL1        0.0625
     41 H           3.1093    1.8223    0.9448 H       1  UNL1        0.1731
     42 H           4.3200   -0.4062    0.9984 H       1  UNL1        0.1731
     43 H           4.6531   -1.2159   -3.5034 H       1  UNL1        0.0626
     44 H           6.2319   -2.8253   -4.2152 H       1  UNL1        0.0618
     45 H           7.6470   -3.9470   -2.6176 H       1  UNL1        0.0618
     46 H           7.4474   -3.4157   -0.2723 H       1  UNL1        0.0646
     47 H          -1.0364    0.6507   -0.4842 H       1  UNL1        0.0645
@<TRIPOS>BOND
     1     1     2    1
     2     2     3   ar
     3     2     8   ar
     4     3     4    1
     5     3     5   ar
     6     5     6   ar
     7     6     7   ar
     8     7     8   ar
     9     8     9    1
    10     9    10    1
    11    10    11    2
    12    10    12    2
    13    10    13    1
    14    13    14   ar
    15    13    31   ar
    16    14    15   ar
    17    15    16   ar
    18    16    17   ar
    19    17    18    1
    20    17    31   ar
    21    18    19    2
    22    18    20   am
    23    20    21    1
    24    21    22   am
    25    22    23    2
    26    22    24    1
    27    24    25   ar
    28    24    29   ar
    29    25    26   ar
    30    26    27   ar
    31    27    28   ar
    32    28    29   ar
    33    29    30    1
    34     1    32    1
    35     1    33    1
    36     5    34    1
    37     6    35    1
    38     7    36    1
    39     9    37    1
    40    14    38    1
    41    15    39    1
    42    16    40    1
    43    20    41    1
    44    21    42    1
    45    25    43    1
    46    26    44    1
    47    27    45    1
    48    28    46    1
    49    31    47    1
@<TRIPOS>MOLECULE
../data/bude_mols_rdkit_confs2/molecule_88.pdb
 47 49 0 0 0
SMALL
GASTEIGER

@<TRIPOS>ATOM
      1  N1        -6.3440   -0.9000    2.3110 N.pl3   1  UNL1       -0.3543
      2  C1        -6.0720    0.0570    1.2970 C.ar    1  UNL1        0.0829
      3  C2        -7.1470    0.6980    0.7120 C.ar    1  UNL1        0.1458
      4  F1        -8.4240    0.4000    1.1260 F       1  UNL1       -0.2035
      5  C3        -6.9650    1.6390   -0.2930 C.ar    1  UNL1       -0.0245
      6  C4        -5.6710    1.9250   -0.7020 C.ar    1  UNL1       -0.0571
      7  C5        -4.6150    1.2760   -0.1060 C.ar    1  UNL1       -0.0374
      8  C6        -4.7670    0.3460    0.8860 C.ar    1  UNL1        0.0714
      9  N2        -3.7040   -0.3200    1.5290 N.pl3   1  UNL1       -0.2144
     10  S1        -2.8010   -1.5170    0.7010 S.O2    1  UNL1        0.0724
     11  O1        -3.7310   -2.6630    0.3490 O.2     1  UNL1       -0.1500
     12  O2        -1.8200   -2.0900    1.6980 O.2     1  UNL1       -0.1500
     13  C7        -1.9700   -0.9380   -0.7130 C.ar    1  UNL1        0.1092
     14  C8        -2.5840   -0.7130   -1.9230 C.ar    1  UNL1       -0.0350
     15  C9        -1.9000   -0.3000   -3.0470 C.ar    1  UNL1       -0.0592
     16  C10       -0.5260   -0.1070   -2.9380 C.ar    1  UNL1       -0.0495
     17  C11        0.1380   -0.3180   -1.7500 C.ar    1  UNL1        0.0400
     18  C12        1.5800   -0.1400   -1.7050 C.2     1  UNL1        0.2602
     19  O3         2.1720    0.1760   -2.7790 O.2     1  UNL1       -0.2687
     20  N3         2.3950   -0.2880   -0.5770 N.am    1  UNL1       -0.2301
     21  N4         3.8020   -0.1120   -0.6100 N.am    1  UNL1       -0.2300
     22  C13        4.6060   -0.0590    0.5310 C.2     1  UNL1        0.2629
     23  O4         3.9550   -0.1720    1.6420 O.2     1  UNL1       -0.2686
     24  C14        6.0500    0.1060    0.5730 C.ar    1  UNL1        0.0733
     25  C15        6.6470    0.3210    1.7950 C.ar    1  UNL1       -0.0468
     26  C16        8.0140    0.4950    1.9580 C.ar    1  UNL1       -0.0609
     27  C17        8.8220    0.4540    0.8560 C.ar    1  UNL1       -0.0590
     28  C18        8.2680    0.2420   -0.3750 C.ar    1  UNL1       -0.0257
     29  C19        6.8850    0.0690   -0.5160 C.ar    1  UNL1        0.1355
     30  F2         6.3920   -0.1400   -1.7410 F       1  UNL1       -0.2047
     31  C20       -0.5960   -0.7280   -0.6590 C.ar    1  UNL1       -0.0229
     32 H          -7.2735   -1.0822    2.5793 H       1  UNL1        0.1425
     33 H          -5.6030   -1.3810    2.7454 H       1  UNL1        0.1425
     34 H          -7.7730    2.1139   -0.7250 H       1  UNL1        0.0647
     35 H          -5.5020    2.6188   -1.4471 H       1  UNL1        0.0619
     36 H          -3.6593    1.5020   -0.4232 H       1  UNL1        0.0637
     37 H          -3.4790   -0.0955    2.4608 H       1  UNL1        0.1737
     38 H          -3.6031   -0.8599   -1.9930 H       1  UNL1        0.0637
     39 H          -2.3912   -0.1392   -3.9403 H       1  UNL1        0.0618
     40 H           0.0073    0.2012   -3.7660 H       1  UNL1        0.0625
     41 H           1.9719   -0.5254    0.2796 H       1  UNL1        0.1731
     42 H           4.2374   -0.0219   -1.4884 H       1  UNL1        0.1731
     43 H           6.0464    0.3545    2.6335 H       1  UNL1        0.0626
     44 H           8.4143    0.6528    2.8960 H       1  UNL1        0.0618
     45 H           9.8414    0.5820    0.9530 H       1  UNL1        0.0618
     46 H           8.8746    0.2090   -1.2093 H       1  UNL1        0.0646
     47 H          -0.1063   -0.8859    0.2356 H       1  UNL1        0.0645
@<TRIPOS>BOND
     1     1     2    1
     2     2     3   ar
     3     2     8   ar
     4     3     4    1
     5     3     5   ar
     6     5     6   ar
     7     6     7   ar
     8     7     8   ar
     9     8     9    1
    10     9    10    1
    11    10    11    2
    12    10    12    2
    13    10    13    1
    14    13    14   ar
    15    13    31   ar
    16    14    15   ar
    17    15    16   ar
    18    16    17   ar
    19    17    18    1
    20    17    31   ar
    21    18    19    2
    22    18    20   am
    23    20    21    1
    24    21    22   am
    25    22    23    2
    26    22    24    1
    27    24    25   ar
    28    24    29   ar
    29    25    26   ar
    30    26    27   ar
    31    27    28   ar
    32    28    29   ar
    33    29    30    1
    34     1    32    1
    35     1    33    1
    36     5    34    1
    37     6    35    1
    38     7    36    1
    39     9    37    1
    40    14    38    1
    41    15    39    1
    42    16    40    1
    43    20    41    1
    44    21    42    1
    45    25    43    1
    46    26    44    1
    47    27    45    1
    48    28    46    1
    49    31    47    1
@<TRIPOS>MOLECULE
../data/bude_mols_rdkit_confs2/molecule_88.pdb
 47 49 0 0 0
SMALL
GASTEIGER

@<TRIPOS>ATOM
      1  N1        -5.3050    1.1810   -2.5180 N.pl3   1  UNL1       -0.3543
      2  C1        -5.6040    1.1590   -1.1460 C.ar    1  UNL1        0.0829
      3  C2        -6.3920    2.1640   -0.6050 C.ar    1  UNL1        0.1458
      4  F1        -6.8980    3.1590   -1.3860 F       1  UNL1       -0.2035
      5  C3        -6.6880    2.1880    0.7390 C.ar    1  UNL1       -0.0245
      6  C4        -6.1760    1.1830    1.5300 C.ar    1  UNL1       -0.0571
      7  C5        -5.3940    0.1910    0.9730 C.ar    1  UNL1       -0.0374
      8  C6        -5.0870    0.1460   -0.3620 C.ar    1  UNL1        0.0714
      9  N2        -4.3600   -0.8680   -0.9810 N.pl3   1  UNL1       -0.2144
     10  S1        -2.6990   -1.1270   -1.0790 S.O2    1  UNL1        0.0724
     11  O1        -2.0110    0.0010   -1.8520 O.2     1  UNL1       -0.1500
     12  O2        -2.4180   -2.3520   -1.9440 O.2     1  UNL1       -0.1500
     13  C7        -1.8420   -1.3650    0.3920 C.ar    1  UNL1        0.1092
     14  C8        -2.2860   -2.0500    1.5040 C.ar    1  UNL1       -0.0350
     15  C9        -1.4400   -2.2070    2.5750 C.ar    1  UNL1       -0.0592
     16  C10       -0.1490   -1.7150    2.6050 C.ar    1  UNL1       -0.0495
     17  C11        0.3140   -1.0340    1.5110 C.ar    1  UNL1        0.0400
     18  C12        1.6970   -0.5360    1.4180 C.2     1  UNL1        0.2602
     19  O3         2.5440   -1.0720    2.1960 O.2     1  UNL1       -0.2687
     20  N3         2.0640    0.4740    0.5070 N.am    1  UNL1       -0.2301
     21  N4         3.4220    0.8760    0.4210 N.am    1  UNL1       -0.2300
     22  C13        4.3450   -0.0190   -0.1570 C.2     1  UNL1        0.2629
     23  O4         3.8340   -1.1380   -0.5280 O.2     1  UNL1       -0.2686
     24  C14        5.7670    0.1760   -0.3750 C.ar    1  UNL1        0.0733
     25  C15        6.5390   -0.8860   -0.8240 C.ar    1  UNL1       -0.0468
     26  C16        7.8790   -0.7480   -1.0510 C.ar    1  UNL1       -0.0609
     27  C17        8.4880    0.4800   -0.8280 C.ar    1  UNL1       -0.0590
     28  C18        7.7440    1.5470   -0.3820 C.ar    1  UNL1       -0.0257
     29  C19        6.3980    1.3710   -0.1660 C.ar    1  UNL1        0.1355
     30  F2         5.7090    2.4650    0.2680 F       1  UNL1       -0.2047
     31  C20       -0.5480   -0.8830    0.4480 C.ar    1  UNL1       -0.0229
     32 H          -5.6664    1.8968   -3.0891 H       1  UNL1        0.1425
     33 H          -4.7340    0.4806   -2.9087 H       1  UNL1        0.1425
     34 H          -7.2750    2.9353    1.1415 H       1  UNL1        0.0647
     35 H          -6.3777    1.1717    2.5420 H       1  UNL1        0.0619
     36 H          -5.0241   -0.5496    1.5892 H       1  UNL1        0.0637
     37 H          -4.9086   -1.5463   -1.4372 H       1  UNL1        0.1737
     38 H          -3.2413   -2.4395    1.5310 H       1  UNL1        0.0637
     39 H          -1.7870   -2.7195    3.4008 H       1  UNL1        0.0618
     40 H           0.4517   -1.8574    3.4320 H       1  UNL1        0.0625
     41 H           1.3839    0.8974   -0.0652 H       1  UNL1        0.1731
     42 H           3.7115    1.7554    0.7557 H       1  UNL1        0.1731
     43 H           6.0908   -1.8006   -0.9902 H       1  UNL1        0.0626
     44 H           8.4348   -1.5505   -1.3858 H       1  UNL1        0.0618
     45 H           9.4999    0.5919   -0.9972 H       1  UNL1        0.0618
     46 H           8.1880    2.4630   -0.2126 H       1  UNL1        0.0646
     47 H          -0.1989   -0.3673   -0.3749 H       1  UNL1        0.0645
@<TRIPOS>BOND
     1     1     2    1
     2     2     3   ar
     3     2     8   ar
     4     3     4    1
     5     3     5   ar
     6     5     6   ar
     7     6     7   ar
     8     7     8   ar
     9     8     9    1
    10     9    10    1
    11    10    11    2
    12    10    12    2
    13    10    13    1
    14    13    14   ar
    15    13    31   ar
    16    14    15   ar
    17    15    16   ar
    18    16    17   ar
    19    17    18    1
    20    17    31   ar
    21    18    19    2
    22    18    20   am
    23    20    21    1
    24    21    22   am
    25    22    23    2
    26    22    24    1
    27    24    25   ar
    28    24    29   ar
    29    25    26   ar
    30    26    27   ar
    31    27    28   ar
    32    28    29   ar
    33    29    30    1
    34     1    32    1
    35     1    33    1
    36     5    34    1
    37     6    35    1
    38     7    36    1
    39     9    37    1
    40    14    38    1
    41    15    39    1
    42    16    40    1
    43    20    41    1
    44    21    42    1
    45    25    43    1
    46    26    44    1
    47    27    45    1
    48    28    46    1
    49    31    47    1
@<TRIPOS>MOLECULE
../data/bude_mols_rdkit_confs2/molecule_88.pdb
 47 49 0 0 0
SMALL
GASTEIGER

@<TRIPOS>ATOM
      1  N1        -6.5700    1.5160   -1.1930 N.pl3   1  UNL1       -0.3543
      2  C1        -6.1250    0.6130   -0.1800 C.ar    1  UNL1        0.0829
      3  C2        -7.0950    0.0280    0.6170 C.ar    1  UNL1        0.1458
      4  F1        -8.4110    0.3270    0.3970 F       1  UNL1       -0.2035
      5  C3        -6.7250   -0.8440    1.6020 C.ar    1  UNL1       -0.0245
      6  C4        -5.3830   -1.1490    1.8120 C.ar    1  UNL1       -0.0571
      7  C5        -4.4130   -0.5490    0.9980 C.ar    1  UNL1       -0.0374
      8  C6        -4.7660    0.3290    0.0030 C.ar    1  UNL1        0.0714
      9  N2        -3.8130    0.9560   -0.8320 N.pl3   1  UNL1       -0.2144
     10  S1        -2.8400    0.0980   -1.9370 S.O2    1  UNL1        0.0724
     11  O1        -1.9820    1.0060   -2.7630 O.2     1  UNL1       -0.1500
     12  O2        -3.7000   -0.6610   -2.9380 O.2     1  UNL1       -0.1500
     13  C7        -1.7890   -1.0830   -1.2170 C.ar    1  UNL1        0.1092
     14  C8        -2.2500   -2.3660   -0.9460 C.ar    1  UNL1       -0.0350
     15  C9        -1.3550   -3.2560   -0.4040 C.ar    1  UNL1       -0.0592
     16  C10       -0.0520   -2.9250   -0.1310 C.ar    1  UNL1       -0.0495
     17  C11        0.4030   -1.6380   -0.4070 C.ar    1  UNL1        0.0400
     18  C12        1.8230   -1.3480   -0.1240 C.2     1  UNL1        0.2602
     19  O3         2.5030   -2.1950    0.5120 O.2     1  UNL1       -0.2687
     20  N3         2.4630   -0.1550   -0.5450 N.am    1  UNL1       -0.2301
     21  N4         3.8470   -0.0030   -0.2280 N.am    1  UNL1       -0.2300
     22  C13        4.3670    1.1510    0.4050 C.2     1  UNL1        0.2629
     23  O4         3.4960    2.0520    0.6680 O.2     1  UNL1       -0.2686
     24  C14        5.7470    1.3800    0.7630 C.ar    1  UNL1        0.0733
     25  C15        6.0850    2.6430    1.2720 C.ar    1  UNL1       -0.0468
     26  C16        7.3360    3.0040    1.6470 C.ar    1  UNL1       -0.0609
     27  C17        8.3450    2.0990    1.5290 C.ar    1  UNL1       -0.0590
     28  C18        8.0830    0.8480    1.0380 C.ar    1  UNL1       -0.0257
     29  C19        6.7790    0.5050    0.6610 C.ar    1  UNL1        0.1355
     30  F2         6.5590   -0.7340    0.1880 F       1  UNL1       -0.2047
     31  C20       -0.4850   -0.7610   -0.9400 C.ar    1  UNL1       -0.0229
     32 H          -7.5312    1.6991   -1.3015 H       1  UNL1        0.1425
     33 H          -5.9155    1.9554   -1.7828 H       1  UNL1        0.1425
     34 H          -7.4473   -1.2806    2.1959 H       1  UNL1        0.0647
     35 H          -5.1065   -1.8077    2.5567 H       1  UNL1        0.0619
     36 H          -3.4165   -0.7707    1.1489 H       1  UNL1        0.0637
     37 H          -3.7066    1.9329   -0.7724 H       1  UNL1        0.1737
     38 H          -3.2254   -2.6389   -1.1440 H       1  UNL1        0.0637
     39 H          -1.6763   -4.2138   -0.1933 H       1  UNL1        0.0618
     40 H           0.5871   -3.6254    0.2764 H       1  UNL1        0.0625
     41 H           1.9719    0.5421   -1.0371 H       1  UNL1        0.1731
     42 H           4.4662   -0.7325   -0.4598 H       1  UNL1        0.1731
     43 H           5.3320    3.3423    1.3669 H       1  UNL1        0.0626
     44 H           7.5204    3.9499    2.0161 H       1  UNL1        0.0618
     45 H           9.3049    2.3547    1.8087 H       1  UNL1        0.0618
     46 H           8.8457    0.1589    0.9459 H       1  UNL1        0.0646
     47 H          -0.1625    0.1971   -1.1475 H       1  UNL1        0.0645
@<TRIPOS>BOND
     1     1     2    1
     2     2     3   ar
     3     2     8   ar
     4     3     4    1
     5     3     5   ar
     6     5     6   ar
     7     6     7   ar
     8     7     8   ar
     9     8     9    1
    10     9    10    1
    11    10    11    2
    12    10    12    2
    13    10    13    1
    14    13    14   ar
    15    13    31   ar
    16    14    15   ar
    17    15    16   ar
    18    16    17   ar
    19    17    18    1
    20    17    31   ar
    21    18    19    2
    22    18    20   am
    23    20    21    1
    24    21    22   am
    25    22    23    2
    26    22    24    1
    27    24    25   ar
    28    24    29   ar
    29    25    26   ar
    30    26    27   ar
    31    27    28   ar
    32    28    29   ar
    33    29    30    1
    34     1    32    1
    35     1    33    1
    36     5    34    1
    37     6    35    1
    38     7    36    1
    39     9    37    1
    40    14    38    1
    41    15    39    1
    42    16    40    1
    43    20    41    1
    44    21    42    1
    45    25    43    1
    46    26    44    1
    47    27    45    1
    48    28    46    1
    49    31    47    1
@<TRIPOS>MOLECULE
../data/bude_mols_rdkit_confs2/molecule_88.pdb
 47 49 0 0 0
SMALL
GASTEIGER

@<TRIPOS>ATOM
      1  N1        -6.4480   -0.3260    1.5580 N.pl3   1  UNL1       -0.3543
      2  C1        -5.9140   -0.6340    0.2790 C.ar    1  UNL1        0.0829
      3  C2        -6.6400   -1.4400   -0.5970 C.ar    1  UNL1        0.1458
      4  F1        -7.8740   -1.9150   -0.2100 F       1  UNL1       -0.2035
      5  C3        -6.1280   -1.7520   -1.8340 C.ar    1  UNL1       -0.0245
      6  C4        -4.8820   -1.2610   -2.2070 C.ar    1  UNL1       -0.0571
      7  C5        -4.1890   -0.4550   -1.2990 C.ar    1  UNL1       -0.0374
      8  C6        -4.6660   -0.1210   -0.0560 C.ar    1  UNL1        0.0714
      9  N2        -4.0010    0.6750    0.9040 N.pl3   1  UNL1       -0.2144
     10  S1        -3.2090    2.1500    0.6630 S.O2    1  UNL1        0.0724
     11  O1        -2.6630    2.6460    1.9870 O.2     1  UNL1       -0.1500
     12  O2        -4.1460    3.2420    0.2030 O.2     1  UNL1       -0.1500
     13  C7        -1.8570    2.1180   -0.4260 C.ar    1  UNL1        0.1092
     14  C8        -2.0610    2.4750   -1.7440 C.ar    1  UNL1       -0.0350
     15  C9        -0.9870    2.4620   -2.5970 C.ar    1  UNL1       -0.0592
     16  C10        0.2430    2.1000   -2.1240 C.ar    1  UNL1       -0.0495
     17  C11        0.4650    1.7390   -0.7990 C.ar    1  UNL1        0.0400
     18  C12        1.8170    1.3950   -0.3930 C.2     1  UNL1        0.2602
     19  O3         2.7800    2.0170   -0.9820 O.2     1  UNL1       -0.2687
     20  N3         2.1750    0.4500    0.5790 N.am    1  UNL1       -0.2301
     21  N4         3.5420    0.2190    0.8820 N.am    1  UNL1       -0.2300
     22  C13        4.1460   -1.0360    0.6570 C.2     1  UNL1        0.2629
     23  O4         3.3590   -1.9180    0.1630 O.2     1  UNL1       -0.2686
     24  C14        5.5300   -1.3920    0.9310 C.ar    1  UNL1        0.0733
     25  C15        5.9460   -2.6770    0.6250 C.ar    1  UNL1       -0.0468
     26  C16        7.2220   -3.1100    0.8420 C.ar    1  UNL1       -0.0609
     27  C17        8.1260   -2.2250    1.3920 C.ar    1  UNL1       -0.0590
     28  C18        7.7680   -0.9400    1.7150 C.ar    1  UNL1       -0.0257
     29  C19        6.4510   -0.5570    1.4680 C.ar    1  UNL1        0.1355
     30  F2         6.1490    0.7080    1.8000 F       1  UNL1       -0.2047
     31  C20       -0.6130    1.7530    0.0480 C.ar    1  UNL1       -0.0229
     32 H          -7.3297   -0.6764    1.8207 H       1  UNL1        0.1425
     33 H          -5.9365    0.2379    2.1822 H       1  UNL1        0.1425
     34 H          -6.6659   -2.3478   -2.4826 H       1  UNL1        0.0647
     35 H          -4.4791   -1.4857   -3.1302 H       1  UNL1        0.0619
     36 H          -3.2653   -0.0900   -1.5795 H       1  UNL1        0.0637
     37 H          -3.9984    0.3287    1.8256 H       1  UNL1        0.1737
     38 H          -2.9989    2.7451   -2.0793 H       1  UNL1        0.0637
     39 H          -1.1068    2.7235   -3.5881 H       1  UNL1        0.0618
     40 H           1.0414    2.0942   -2.7778 H       1  UNL1        0.0625
     41 H           1.4754   -0.0551    1.0530 H       1  UNL1        0.1731
     42 H           4.0815    0.9517    1.2580 H       1  UNL1        0.1731
     43 H           5.2632   -3.3340    0.2162 H       1  UNL1        0.0626
     44 H           7.5029   -4.0734    0.6011 H       1  UNL1        0.0618
     45 H           9.0946   -2.5366    1.5647 H       1  UNL1        0.0618
     46 H           8.4487   -0.2819    2.1255 H       1  UNL1        0.0646
     47 H          -0.4945    1.4909    1.0391 H       1  UNL1        0.0645
@<TRIPOS>BOND
     1     1     2    1
     2     2     3   ar
     3     2     8   ar
     4     3     4    1
     5     3     5   ar
     6     5     6   ar
     7     6     7   ar
     8     7     8   ar
     9     8     9    1
    10     9    10    1
    11    10    11    2
    12    10    12    2
    13    10    13    1
    14    13    14   ar
    15    13    31   ar
    16    14    15   ar
    17    15    16   ar
    18    16    17   ar
    19    17    18    1
    20    17    31   ar
    21    18    19    2
    22    18    20   am
    23    20    21    1
    24    21    22   am
    25    22    23    2
    26    22    24    1
    27    24    25   ar
    28    24    29   ar
    29    25    26   ar
    30    26    27   ar
    31    27    28   ar
    32    28    29   ar
    33    29    30    1
    34     1    32    1
    35     1    33    1
    36     5    34    1
    37     6    35    1
    38     7    36    1
    39     9    37    1
    40    14    38    1
    41    15    39    1
    42    16    40    1
    43    20    41    1
    44    21    42    1
    45    25    43    1
    46    26    44    1
    47    27    45    1
    48    28    46    1
    49    31    47    1
@<TRIPOS>MOLECULE
../data/bude_mols_rdkit_confs2/molecule_88.pdb
 47 49 0 0 0
SMALL
GASTEIGER

@<TRIPOS>ATOM
      1  N1        -6.7330    1.7120   -1.6190 N.pl3   1  UNL1       -0.3543
      2  C1        -6.4150    1.0430   -0.4060 C.ar    1  UNL1        0.0829
      3  C2        -7.4040    0.5070    0.4070 C.ar    1  UNL1        0.1458
      4  F1        -8.6930    0.6310    0.0240 F       1  UNL1       -0.2035
      5  C3        -7.0940   -0.1370    1.5830 C.ar    1  UNL1       -0.0245
      6  C4        -5.7620   -0.2460    1.9550 C.ar    1  UNL1       -0.0571
      7  C5        -4.7460    0.2740    1.1770 C.ar    1  UNL1       -0.0374
      8  C6        -5.0900    0.9110    0.0040 C.ar    1  UNL1        0.0714
      9  N2        -4.1160    1.4880   -0.8860 N.pl3   1  UNL1       -0.2144
     10  S1        -2.9920    0.5470   -1.7740 S.O2    1  UNL1        0.0724
     11  O1        -2.2340    1.4300   -2.7240 O.2     1  UNL1       -0.1500
     12  O2        -3.7460   -0.4360   -2.6690 O.2     1  UNL1       -0.1500
     13  C7        -1.9330   -0.3560   -0.7430 C.ar    1  UNL1        0.1092
     14  C8        -2.4270   -1.5590   -0.2310 C.ar    1  UNL1       -0.0350
     15  C9        -1.6320   -2.3120    0.5670 C.ar    1  UNL1       -0.0592
     16  C10       -0.3590   -1.9280    0.8840 C.ar    1  UNL1       -0.0495
     17  C11        0.1360   -0.7360    0.3760 C.ar    1  UNL1        0.0400
     18  C12        1.5270   -0.3980    0.7370 C.2     1  UNL1        0.2602
     19  O3         1.8560   -0.5630    1.9350 O.2     1  UNL1       -0.2687
     20  N3         2.4750    0.0810   -0.1790 N.am    1  UNL1       -0.2301
     21  N4         3.8120    0.3990    0.1190 N.am    1  UNL1       -0.2300
     22  C13        4.8940   -0.3450   -0.4010 C.2     1  UNL1        0.2629
     23  O4         4.5420   -1.3240   -1.1510 O.2     1  UNL1       -0.2686
     24  C14        6.3000   -0.1160   -0.1760 C.ar    1  UNL1        0.0733
     25  C15        7.2660   -0.9860   -0.6620 C.ar    1  UNL1       -0.0468
     26  C16        8.6110   -0.8420   -0.4950 C.ar    1  UNL1       -0.0609
     27  C17        9.0770    0.2550    0.2130 C.ar    1  UNL1       -0.0590
     28  C18        8.1630    1.1540    0.7180 C.ar    1  UNL1       -0.0257
     29  C19        6.7890    0.9650    0.5230 C.ar    1  UNL1        0.1355
     30  F2         6.0120    1.9210    1.0630 F       1  UNL1       -0.2047
     31  C20       -0.6640    0.0210   -0.4230 C.ar    1  UNL1       -0.0229
     32 H          -7.6722    1.8005   -1.9008 H       1  UNL1        0.1425
     33 H          -6.0141    2.0869   -2.1775 H       1  UNL1        0.1425
     34 H          -7.8393   -0.5319    2.1777 H       1  UNL1        0.0647
     35 H          -5.5240   -0.7281    2.8359 H       1  UNL1        0.0619
     36 H          -3.7588    0.1882    1.4653 H       1  UNL1        0.0637
     37 H          -4.0948    2.4669   -0.9890 H       1  UNL1        0.1737
     38 H          -3.3847   -1.8697   -0.4578 H       1  UNL1        0.0637
     39 H          -1.9975   -3.1996    0.9458 H       1  UNL1        0.0618
     40 H           0.2273   -2.5184    1.4945 H       1  UNL1        0.0625
     41 H           2.1792    0.2052   -1.1098 H       1  UNL1        0.1731
     42 H           3.9998    1.1646    0.7088 H       1  UNL1        0.1731
     43 H           6.9394   -1.8086   -1.1928 H       1  UNL1        0.0626
     44 H           9.2681   -1.5345   -0.8870 H       1  UNL1        0.0618
     45 H          10.0889    0.3956    0.3590 H       1  UNL1        0.0618
     46 H           8.4948    1.9762    1.2461 H       1  UNL1        0.0646
     47 H          -0.2973    0.9095   -0.7987 H       1  UNL1        0.0645
@<TRIPOS>BOND
     1     1     2    1
     2     2     3   ar
     3     2     8   ar
     4     3     4    1
     5     3     5   ar
     6     5     6   ar
     7     6     7   ar
     8     7     8   ar
     9     8     9    1
    10     9    10    1
    11    10    11    2
    12    10    12    2
    13    10    13    1
    14    13    14   ar
    15    13    31   ar
    16    14    15   ar
    17    15    16   ar
    18    16    17   ar
    19    17    18    1
    20    17    31   ar
    21    18    19    2
    22    18    20   am
    23    20    21    1
    24    21    22   am
    25    22    23    2
    26    22    24    1
    27    24    25   ar
    28    24    29   ar
    29    25    26   ar
    30    26    27   ar
    31    27    28   ar
    32    28    29   ar
    33    29    30    1
    34     1    32    1
    35     1    33    1
    36     5    34    1
    37     6    35    1
    38     7    36    1
    39     9    37    1
    40    14    38    1
    41    15    39    1
    42    16    40    1
    43    20    41    1
    44    21    42    1
    45    25    43    1
    46    26    44    1
    47    27    45    1
    48    28    46    1
    49    31    47    1
@<TRIPOS>MOLECULE
../data/bude_mols_rdkit_confs2/molecule_88.pdb
 47 49 0 0 0
SMALL
GASTEIGER

@<TRIPOS>ATOM
      1  N1        -6.5290   -2.1900   -1.3720 N.pl3   1  UNL1       -0.3543
      2  C1        -6.0620   -0.8590   -1.1300 C.ar    1  UNL1        0.0829
      3  C2        -6.9330    0.2040   -1.3060 C.ar    1  UNL1        0.1458
      4  F1        -8.2040   -0.0300   -1.7030 F       1  UNL1       -0.2035
      5  C3        -6.5350    1.5060   -1.0850 C.ar    1  UNL1       -0.0245
      6  C4        -5.2440    1.7310   -0.6840 C.ar    1  UNL1       -0.0571
      7  C5        -4.3680    0.6560   -0.5070 C.ar    1  UNL1       -0.0374
      8  C6        -4.7700   -0.6340   -0.7280 C.ar    1  UNL1        0.0714
      9  N2        -3.8860   -1.7070   -0.5730 N.pl3   1  UNL1       -0.2144
     10  S1        -3.0330   -2.0040    0.8620 S.O2    1  UNL1        0.0724
     11  O1        -4.0730   -2.1190    1.9750 O.2     1  UNL1       -0.1500
     12  O2        -2.2840   -3.3180    0.7760 O.2     1  UNL1       -0.1500
     13  C7        -1.9390   -0.7280    1.3450 C.ar    1  UNL1        0.1092
     14  C8        -2.3190    0.2060    2.3140 C.ar    1  UNL1       -0.0350
     15  C9        -1.4860    1.2150    2.7180 C.ar    1  UNL1       -0.0592
     16  C10       -0.2310    1.2910    2.1320 C.ar    1  UNL1       -0.0495
     17  C11        0.1710    0.3880    1.1770 C.ar    1  UNL1        0.0400
     18  C12        1.5140    0.5160    0.5960 C.2     1  UNL1        0.2602
     19  O3         1.8020   -0.1940   -0.4340 O.2     1  UNL1       -0.2687
     20  N3         2.5290    1.3550    1.0710 N.am    1  UNL1       -0.2301
     21  N4         3.8030    1.4060    0.4340 N.am    1  UNL1       -0.2300
     22  C13        4.5990    0.2530    0.2980 C.2     1  UNL1        0.2629
     23  O4         4.0860   -0.8230    0.7830 O.2     1  UNL1       -0.2686
     24  C14        5.8980    0.1430   -0.3120 C.ar    1  UNL1        0.0733
     25  C15        6.4730   -1.1160   -0.4040 C.ar    1  UNL1       -0.0468
     26  C16        7.7180   -1.3290   -0.9750 C.ar    1  UNL1       -0.0609
     27  C17        8.4310   -0.2650   -1.4780 C.ar    1  UNL1       -0.0590
     28  C18        7.8860    0.9890   -1.4010 C.ar    1  UNL1       -0.0257
     29  C19        6.6430    1.1710   -0.8260 C.ar    1  UNL1        0.1355
     30  F2         6.1670    2.4210   -0.7780 F       1  UNL1       -0.2047
     31  C20       -0.6860   -0.6030    0.7990 C.ar    1  UNL1       -0.0229
     32 H          -7.4582   -2.3409   -1.6603 H       1  UNL1        0.1425
     33 H          -5.9211   -2.9547   -1.2502 H       1  UNL1        0.1425
     34 H          -7.1923    2.2904   -1.2182 H       1  UNL1        0.0647
     35 H          -4.9181    2.6951   -0.5125 H       1  UNL1        0.0619
     36 H          -3.3986    0.8385   -0.2036 H       1  UNL1        0.0637
     37 H          -3.7528   -2.3186   -1.3329 H       1  UNL1        0.1737
     38 H          -3.2570    0.1325    2.7381 H       1  UNL1        0.0637
     39 H          -1.7820    1.8962    3.4345 H       1  UNL1        0.0618
     40 H           0.4153    2.0424    2.4195 H       1  UNL1        0.0625
     41 H           2.3598    1.9200    1.8593 H       1  UNL1        0.1731
     42 H           4.1327    2.2644    0.0823 H       1  UNL1        0.1731
     43 H           5.9531   -1.9264   -0.0325 H       1  UNL1        0.0626
     44 H           8.1091   -2.2828   -1.0227 H       1  UNL1        0.0618
     45 H           9.3592   -0.4093   -1.9053 H       1  UNL1        0.0618
     46 H           8.4049    1.7997   -1.7732 H       1  UNL1        0.0646
     47 H          -0.3833   -1.2794    0.0807 H       1  UNL1        0.0645
@<TRIPOS>BOND
     1     1     2    1
     2     2     3   ar
     3     2     8   ar
     4     3     4    1
     5     3     5   ar
     6     5     6   ar
     7     6     7   ar
     8     7     8   ar
     9     8     9    1
    10     9    10    1
    11    10    11    2
    12    10    12    2
    13    10    13    1
    14    13    14   ar
    15    13    31   ar
    16    14    15   ar
    17    15    16   ar
    18    16    17   ar
    19    17    18    1
    20    17    31   ar
    21    18    19    2
    22    18    20   am
    23    20    21    1
    24    21    22   am
    25    22    23    2
    26    22    24    1
    27    24    25   ar
    28    24    29   ar
    29    25    26   ar
    30    26    27   ar
    31    27    28   ar
    32    28    29   ar
    33    29    30    1
    34     1    32    1
    35     1    33    1
    36     5    34    1
    37     6    35    1
    38     7    36    1
    39     9    37    1
    40    14    38    1
    41    15    39    1
    42    16    40    1
    43    20    41    1
    44    21    42    1
    45    25    43    1
    46    26    44    1
    47    27    45    1
    48    28    46    1
    49    31    47    1
@<TRIPOS>MOLECULE
../data/bude_mols_rdkit_confs2/molecule_88.pdb
 47 49 0 0 0
SMALL
GASTEIGER

@<TRIPOS>ATOM
      1  N1        -7.1670    0.3240    0.2790 N.pl3   1  UNL1       -0.3543
      2  C1        -6.2300   -0.6500   -0.1700 C.ar    1  UNL1        0.0829
      3  C2        -6.6420   -1.7610   -0.8470 C.ar    1  UNL1        0.1458
      4  F1        -7.9970   -1.9150   -1.0730 F       1  UNL1       -0.2035
      5  C3        -5.7380   -2.6790   -1.2660 C.ar    1  UNL1       -0.0245
      6  C4        -4.3740   -2.5010   -1.0110 C.ar    1  UNL1       -0.0571
      7  C5        -3.9400   -1.3910   -0.3340 C.ar    1  UNL1       -0.0374
      8  C6        -4.8600   -0.4660    0.0870 C.ar    1  UNL1        0.0714
      9  N2        -4.4950    0.7130    0.7830 N.pl3   1  UNL1       -0.2144
     10  S1        -3.0970    0.8480    1.7440 S.O2    1  UNL1        0.0724
     11  O1        -2.5360   -0.5150    2.0730 O.2     1  UNL1       -0.1500
     12  O2        -3.4920    1.5260    3.0340 O.2     1  UNL1       -0.1500
     13  C7        -1.8530    1.7500    0.9310 C.ar    1  UNL1        0.1092
     14  C8        -1.9870    3.0890    0.6590 C.ar    1  UNL1       -0.0350
     15  C9        -0.9940    3.8380    0.0780 C.ar    1  UNL1       -0.0592
     16  C10        0.2070    3.2590   -0.2640 C.ar    1  UNL1       -0.0495
     17  C11        0.3770    1.9160   -0.0070 C.ar    1  UNL1        0.0400
     18  C12        1.6560    1.3030   -0.3410 C.2     1  UNL1        0.2602
     19  O3         2.5000    1.9510   -1.0010 O.2     1  UNL1       -0.2687
     20  N3         1.9800   -0.0050    0.0540 N.am    1  UNL1       -0.2301
     21  N4         3.2240   -0.6470   -0.2500 N.am    1  UNL1       -0.2300
     22  C13        4.4060   -0.1560    0.3290 C.2     1  UNL1        0.2629
     23  O4         4.2990    0.8390    1.0850 O.2     1  UNL1       -0.2686
     24  C14        5.7030   -0.7430    0.0940 C.ar    1  UNL1        0.0733
     25  C15        6.7780   -0.2960    0.8820 C.ar    1  UNL1       -0.0468
     26  C16        8.0320   -0.8180    0.7300 C.ar    1  UNL1       -0.0609
     27  C17        8.3150   -1.8050   -0.1990 C.ar    1  UNL1       -0.0590
     28  C18        7.2880   -2.2460   -0.9670 C.ar    1  UNL1       -0.0257
     29  C19        5.9970   -1.7170   -0.8190 C.ar    1  UNL1        0.1355
     30  F2         5.0270   -2.2050   -1.6300 F       1  UNL1       -0.2047
     31  C20       -0.6370    1.1610    0.5830 C.ar    1  UNL1       -0.0229
     32 H          -8.1277    0.2011    0.1022 H       1  UNL1        0.1425
     33 H          -6.8541    1.1202    0.7661 H       1  UNL1        0.1425
     34 H          -6.0581   -3.5163   -1.7774 H       1  UNL1        0.0647
     35 H          -3.6934   -3.2067   -1.3332 H       1  UNL1        0.0619
     36 H          -2.9350   -1.2536   -0.1439 H       1  UNL1        0.0637
     37 H          -5.0834    1.4986    0.7063 H       1  UNL1        0.1737
     38 H          -2.8755    3.5541    0.9026 H       1  UNL1        0.0637
     39 H          -1.1490    4.8420   -0.1036 H       1  UNL1        0.0618
     40 H           0.9589    3.8150   -0.7005 H       1  UNL1        0.0625
     41 H           1.3122   -0.5111    0.5708 H       1  UNL1        0.1731
     42 H           3.2502   -1.4220   -0.8566 H       1  UNL1        0.1731
     43 H           6.6174    0.4395    1.5879 H       1  UNL1        0.0626
     44 H           8.7946   -0.4641    1.3286 H       1  UNL1        0.0618
     45 H           9.2673   -2.1888   -0.3026 H       1  UNL1        0.0618
     46 H           7.4586   -2.9815   -1.6706 H       1  UNL1        0.0646
     47 H          -0.4861    0.1563    0.7639 H       1  UNL1        0.0645
@<TRIPOS>BOND
     1     1     2    1
     2     2     3   ar
     3     2     8   ar
     4     3     4    1
     5     3     5   ar
     6     5     6   ar
     7     6     7   ar
     8     7     8   ar
     9     8     9    1
    10     9    10    1
    11    10    11    2
    12    10    12    2
    13    10    13    1
    14    13    14   ar
    15    13    31   ar
    16    14    15   ar
    17    15    16   ar
    18    16    17   ar
    19    17    18    1
    20    17    31   ar
    21    18    19    2
    22    18    20   am
    23    20    21    1
    24    21    22   am
    25    22    23    2
    26    22    24    1
    27    24    25   ar
    28    24    29   ar
    29    25    26   ar
    30    26    27   ar
    31    27    28   ar
    32    28    29   ar
    33    29    30    1
    34     1    32    1
    35     1    33    1
    36     5    34    1
    37     6    35    1
    38     7    36    1
    39     9    37    1
    40    14    38    1
    41    15    39    1
    42    16    40    1
    43    20    41    1
    44    21    42    1
    45    25    43    1
    46    26    44    1
    47    27    45    1
    48    28    46    1
    49    31    47    1
@<TRIPOS>MOLECULE
../data/bude_mols_rdkit_confs2/molecule_88.pdb
 47 49 0 0 0
SMALL
GASTEIGER

@<TRIPOS>ATOM
      1  N1         6.8470   -1.5570    0.8250 N.pl3   1  UNL1       -0.3543
      2  C1         6.2240   -0.4950    0.1330 C.ar    1  UNL1        0.0829
      3  C2         6.8230    0.0630   -0.9630 C.ar    1  UNL1        0.1458
      4  F1         8.0430   -0.4440   -1.3610 F       1  UNL1       -0.2035
      5  C3         6.2310    1.1070   -1.6650 C.ar    1  UNL1       -0.0245
      6  C4         5.0070    1.6110   -1.2620 C.ar    1  UNL1       -0.0571
      7  C5         4.4040    1.0490   -0.1570 C.ar    1  UNL1       -0.0374
      8  C6         4.9810    0.0070    0.5550 C.ar    1  UNL1        0.0714
      9  N2         4.4140   -0.5770    1.6870 N.pl3   1  UNL1       -0.2144
     10  S1         2.8110   -0.4710    2.2480 S.O2    1  UNL1        0.0724
     11  O1         2.4250    0.9800    2.4850 O.2     1  UNL1       -0.1500
     12  O2         2.6750   -1.2470    3.5490 O.2     1  UNL1       -0.1500
     13  C7         1.7390   -1.1630    1.0340 C.ar    1  UNL1        0.1092
     14  C8         2.0340   -2.3910    0.5060 C.ar    1  UNL1       -0.0350
     15  C9         1.2200   -3.0290   -0.4030 C.ar    1  UNL1       -0.0592
     16  C10        0.0530   -2.3440   -0.7640 C.ar    1  UNL1       -0.0495
     17  C11       -0.2960   -1.1100   -0.2630 C.ar    1  UNL1        0.0400
     18  C12       -1.5450   -0.4550   -0.6390 C.2     1  UNL1        0.2602
     19  O3        -2.2280   -0.8500   -1.6430 O.2     1  UNL1       -0.2687
     20  N3        -2.0770    0.6440    0.0840 N.am    1  UNL1       -0.2301
     21  N4        -3.3120    1.2600   -0.2820 N.am    1  UNL1       -0.2300
     22  C13       -4.5240    0.5770    0.0600 C.2     1  UNL1        0.2629
     23  O4        -4.3250   -0.5440    0.6670 O.2     1  UNL1       -0.2686
     24  C14       -5.8650    1.0270   -0.2110 C.ar    1  UNL1        0.0733
     25  C15       -6.9000    0.1500    0.0830 C.ar    1  UNL1       -0.0468
     26  C16       -8.2120    0.4600   -0.1280 C.ar    1  UNL1       -0.0609
     27  C17       -8.5390    1.6930   -0.6520 C.ar    1  UNL1       -0.0590
     28  C18       -7.5530    2.5910   -0.9570 C.ar    1  UNL1       -0.0257
     29  C19       -6.2300    2.2330   -0.7270 C.ar    1  UNL1        0.1355
     30  F2        -5.2610    3.1380   -1.0280 F       1  UNL1       -0.2047
     31  C20        0.5680   -0.5240    0.6460 C.ar    1  UNL1       -0.0229
     32 H           7.7178   -1.8999    0.5195 H       1  UNL1        0.1425
     33 H           6.4104   -1.9544    1.6129 H       1  UNL1        0.1425
     34 H           6.7060    1.5072   -2.4892 H       1  UNL1        0.0647
     35 H           4.5580    2.3861   -1.7744 H       1  UNL1        0.0619
     36 H           3.4905    1.4165    0.1519 H       1  UNL1        0.0637
     37 H           5.0223   -1.1237    2.2349 H       1  UNL1        0.1737
     38 H           2.9047   -2.8592    0.8022 H       1  UNL1        0.0637
     39 H           1.4553   -3.9546   -0.7941 H       1  UNL1        0.0618
     40 H          -0.5818   -2.7898   -1.4447 H       1  UNL1        0.0625
     41 H          -1.5805    0.9915    0.8599 H       1  UNL1        0.1731
     42 H          -3.3300    2.1243   -0.7531 H       1  UNL1        0.1731
     43 H          -6.6676   -0.7749    0.4775 H       1  UNL1        0.0626
     44 H          -8.9521   -0.2214    0.1022 H       1  UNL1        0.0618
     45 H          -9.5282    1.9385   -0.8142 H       1  UNL1        0.0618
     46 H          -7.7870    3.5160   -1.3501 H       1  UNL1        0.0646
     47 H           0.3389    0.4013    1.0414 H       1  UNL1        0.0645
@<TRIPOS>BOND
     1     1     2    1
     2     2     3   ar
     3     2     8   ar
     4     3     4    1
     5     3     5   ar
     6     5     6   ar
     7     6     7   ar
     8     7     8   ar
     9     8     9    1
    10     9    10    1
    11    10    11    2
    12    10    12    2
    13    10    13    1
    14    13    14   ar
    15    13    31   ar
    16    14    15   ar
    17    15    16   ar
    18    16    17   ar
    19    17    18    1
    20    17    31   ar
    21    18    19    2
    22    18    20   am
    23    20    21    1
    24    21    22   am
    25    22    23    2
    26    22    24    1
    27    24    25   ar
    28    24    29   ar
    29    25    26   ar
    30    26    27   ar
    31    27    28   ar
    32    28    29   ar
    33    29    30    1
    34     1    32    1
    35     1    33    1
    36     5    34    1
    37     6    35    1
    38     7    36    1
    39     9    37    1
    40    14    38    1
    41    15    39    1
    42    16    40    1
    43    20    41    1
    44    21    42    1
    45    25    43    1
    46    26    44    1
    47    27    45    1
    48    28    46    1
    49    31    47    1
@<TRIPOS>MOLECULE
../data/bude_mols_rdkit_confs2/molecule_88.pdb
 47 49 0 0 0
SMALL
GASTEIGER

@<TRIPOS>ATOM
      1  N1        -6.9870   -1.4660   -0.8070 N.pl3   1  UNL1       -0.3543
      2  C1        -6.3480   -0.1990   -0.7810 C.ar    1  UNL1        0.0829
      3  C2        -7.0600    0.9570   -1.0370 C.ar    1  UNL1        0.1458
      4  F1        -8.3960    0.9280   -1.3270 F       1  UNL1       -0.2035
      5  C3        -6.4460    2.1850   -1.0060 C.ar    1  UNL1       -0.0245
      6  C4        -5.1040    2.2310   -0.7130 C.ar    1  UNL1       -0.0571
      7  C5        -4.3590    1.0740   -0.4510 C.ar    1  UNL1       -0.0374
      8  C6        -4.9730   -0.1520   -0.4810 C.ar    1  UNL1        0.0714
      9  N2        -4.3060   -1.3750   -0.2610 N.pl3   1  UNL1       -0.2144
     10  S1        -3.4690   -1.7190    1.1720 S.O2    1  UNL1        0.0724
     11  O1        -2.9690   -3.1480    1.2050 O.2     1  UNL1       -0.1500
     12  O2        -4.3850   -1.5790    2.3810 O.2     1  UNL1       -0.1500
     13  C7        -2.1610   -0.6090    1.4220 C.ar    1  UNL1        0.1092
     14  C8        -2.2570    0.4650    2.2840 C.ar    1  UNL1       -0.0350
     15  C9        -1.1510    1.2960    2.4370 C.ar    1  UNL1       -0.0592
     16  C10        0.0120    1.0160    1.7140 C.ar    1  UNL1       -0.0495
     17  C11        0.0920   -0.0580    0.8570 C.ar    1  UNL1        0.0400
     18  C12        1.3670   -0.3030    0.1450 C.2     1  UNL1        0.2602
     19  O3         1.4320   -0.3890   -1.1090 O.2     1  UNL1       -0.2687
     20  N3         2.5860   -0.4550    0.8780 N.am    1  UNL1       -0.2301
     21  N4         3.7880   -0.6900    0.1510 N.am    1  UNL1       -0.2300
     22  C13        4.9120    0.1400    0.2800 C.2     1  UNL1        0.2629
     23  O4         4.7770    1.1230    1.0920 O.2     1  UNL1       -0.2686
     24  C14        6.1850    0.0280   -0.3790 C.ar    1  UNL1        0.0733
     25  C15        7.1450    1.0370   -0.2410 C.ar    1  UNL1       -0.0468
     26  C16        8.3660    0.9970   -0.8490 C.ar    1  UNL1       -0.0609
     27  C17        8.7060   -0.0760   -1.6490 C.ar    1  UNL1       -0.0590
     28  C18        7.7770   -1.0870   -1.8030 C.ar    1  UNL1       -0.0257
     29  C19        6.5330   -1.0310   -1.1750 C.ar    1  UNL1        0.1355
     30  F2         5.7230   -2.0820   -1.4040 F       1  UNL1       -0.2047
     31  C20       -0.9890   -0.8690    0.7090 C.ar    1  UNL1       -0.0229
     32 H          -7.9475   -1.5287   -1.0138 H       1  UNL1        0.1425
     33 H          -6.4698   -2.2821   -0.6182 H       1  UNL1        0.1425
     34 H          -6.9772    3.0488   -1.1973 H       1  UNL1        0.0647
     35 H          -4.6300    3.1473   -0.6851 H       1  UNL1        0.0619
     36 H          -3.3520    1.1439   -0.2362 H       1  UNL1        0.0637
     37 H          -4.3275   -2.0578   -0.9699 H       1  UNL1        0.1737
     38 H          -3.1297    0.6477    2.8036 H       1  UNL1        0.0637
     39 H          -1.1890    2.1066    3.0746 H       1  UNL1        0.0618
     40 H           0.8330    1.6313    1.8258 H       1  UNL1        0.0625
     41 H           2.5939   -0.3986    1.8608 H       1  UNL1        0.1731
     42 H           3.8316   -1.4594   -0.4616 H       1  UNL1        0.1731
     43 H           6.9182    1.8520    0.3501 H       1  UNL1        0.0626
     44 H           9.0361    1.7696   -0.7108 H       1  UNL1        0.0618
     45 H           9.6247   -0.1213   -2.1169 H       1  UNL1        0.0618
     46 H           8.0083   -1.9002   -2.3948 H       1  UNL1        0.0646
     47 H          -0.9433   -1.6774    0.0692 H       1  UNL1        0.0645
@<TRIPOS>BOND
     1     1     2    1
     2     2     3   ar
     3     2     8   ar
     4     3     4    1
     5     3     5   ar
     6     5     6   ar
     7     6     7   ar
     8     7     8   ar
     9     8     9    1
    10     9    10    1
    11    10    11    2
    12    10    12    2
    13    10    13    1
    14    13    14   ar
    15    13    31   ar
    16    14    15   ar
    17    15    16   ar
    18    16    17   ar
    19    17    18    1
    20    17    31   ar
    21    18    19    2
    22    18    20   am
    23    20    21    1
    24    21    22   am
    25    22    23    2
    26    22    24    1
    27    24    25   ar
    28    24    29   ar
    29    25    26   ar
    30    26    27   ar
    31    27    28   ar
    32    28    29   ar
    33    29    30    1
    34     1    32    1
    35     1    33    1
    36     5    34    1
    37     6    35    1
    38     7    36    1
    39     9    37    1
    40    14    38    1
    41    15    39    1
    42    16    40    1
    43    20    41    1
    44    21    42    1
    45    25    43    1
    46    26    44    1
    47    27    45    1
    48    28    46    1
    49    31    47    1
@<TRIPOS>MOLECULE
../data/bude_mols_rdkit_confs2/molecule_88.pdb
 47 49 0 0 0
SMALL
GASTEIGER

@<TRIPOS>ATOM
      1  N1        -4.8600    2.8190    1.5340 N.pl3   1  UNL1       -0.3543
      2  C1        -5.5170    1.6650    0.9570 C.ar    1  UNL1        0.0829
      3  C2        -6.6570    1.8310    0.2090 C.ar    1  UNL1        0.1458
      4  F1        -7.1590    3.0930    0.0250 F       1  UNL1       -0.2035
      5  C3        -7.2750    0.7300   -0.3350 C.ar    1  UNL1       -0.0245
      6  C4        -6.8070   -0.5580   -0.1710 C.ar    1  UNL1       -0.0571
      7  C5        -5.6510   -0.6790    0.5920 C.ar    1  UNL1       -0.0374
      8  C6        -5.0090    0.4040    1.1520 C.ar    1  UNL1        0.0714
      9  N2        -3.8530    0.2560    1.9660 N.pl3   1  UNL1       -0.2144
     10  S1        -2.7090   -0.9870    1.7870 S.O2    1  UNL1        0.0724
     11  O1        -3.3870   -2.3350    1.9990 O.2     1  UNL1       -0.1500
     12  O2        -1.7030   -0.8740    2.9100 O.2     1  UNL1       -0.1500
     13  C7        -1.8590   -1.0270    0.2910 C.ar    1  UNL1        0.1092
     14  C8        -2.4170   -1.5440   -0.8400 C.ar    1  UNL1       -0.0350
     15  C9        -1.7210   -1.6340   -2.0440 C.ar    1  UNL1       -0.0592
     16  C10       -0.4260   -1.1770   -2.0580 C.ar    1  UNL1       -0.0495
     17  C11        0.1890   -0.6390   -0.9220 C.ar    1  UNL1        0.0400
     18  C12        1.5770   -0.2550   -1.0180 C.2     1  UNL1        0.2602
     19  O3         2.2900   -0.9500   -1.8450 O.2     1  UNL1       -0.2687
     20  N3         2.2040    0.7930   -0.2980 N.am    1  UNL1       -0.2301
     21  N4         3.5990    0.9870   -0.5220 N.am    1  UNL1       -0.2300
     22  C13        4.4720   -0.0110   -0.0600 C.2     1  UNL1        0.2629
     23  O4         3.9800   -1.0350    0.5480 O.2     1  UNL1       -0.2686
     24  C14        5.9040    0.0490   -0.2290 C.ar    1  UNL1        0.0733
     25  C15        6.6930   -0.7170    0.6360 C.ar    1  UNL1       -0.0468
     26  C16        8.0570   -0.7510    0.6060 C.ar    1  UNL1       -0.0609
     27  C17        8.7180    0.0120   -0.3300 C.ar    1  UNL1       -0.0590
     28  C18        7.9690    0.7800   -1.1980 C.ar    1  UNL1       -0.0257
     29  C19        6.5810    0.8030   -1.1550 C.ar    1  UNL1        0.1355
     30  F2         5.9010    1.5590   -2.0260 F       1  UNL1       -0.2047
     31  C20       -0.5420   -0.5680    0.2540 C.ar    1  UNL1       -0.0229
     32 H          -5.2304    3.7197    1.3896 H       1  UNL1        0.1425
     33 H          -4.0429    2.7030    2.0707 H       1  UNL1        0.1425
     34 H          -8.1309    0.8737   -0.8934 H       1  UNL1        0.0647
     35 H          -7.2822   -1.3747   -0.5860 H       1  UNL1        0.0619
     36 H          -5.2569   -1.6203    0.7455 H       1  UNL1        0.0637
     37 H          -3.7057    0.9173    2.6803 H       1  UNL1        0.1737
     38 H          -3.3916   -1.8815   -0.8034 H       1  UNL1        0.0637
     39 H          -2.1607   -2.0279   -2.8904 H       1  UNL1        0.0618
     40 H           0.1122   -1.2323   -2.9368 H       1  UNL1        0.0625
     41 H           1.6994    1.3610    0.3281 H       1  UNL1        0.1731
     42 H           3.9366    1.7891   -0.9824 H       1  UNL1        0.1731
     43 H           6.2119   -1.2943    1.3433 H       1  UNL1        0.0626
     44 H           8.5830   -1.3377    1.2724 H       1  UNL1        0.0618
     45 H           9.7487    0.0097   -0.3813 H       1  UNL1        0.0618
     46 H           8.4562    1.3561   -1.9021 H       1  UNL1        0.0646
     47 H          -0.1105   -0.1743    1.1048 H       1  UNL1        0.0645
@<TRIPOS>BOND
     1     1     2    1
     2     2     3   ar
     3     2     8   ar
     4     3     4    1
     5     3     5   ar
     6     5     6   ar
     7     6     7   ar
     8     7     8   ar
     9     8     9    1
    10     9    10    1
    11    10    11    2
    12    10    12    2
    13    10    13    1
    14    13    14   ar
    15    13    31   ar
    16    14    15   ar
    17    15    16   ar
    18    16    17   ar
    19    17    18    1
    20    17    31   ar
    21    18    19    2
    22    18    20   am
    23    20    21    1
    24    21    22   am
    25    22    23    2
    26    22    24    1
    27    24    25   ar
    28    24    29   ar
    29    25    26   ar
    30    26    27   ar
    31    27    28   ar
    32    28    29   ar
    33    29    30    1
    34     1    32    1
    35     1    33    1
    36     5    34    1
    37     6    35    1
    38     7    36    1
    39     9    37    1
    40    14    38    1
    41    15    39    1
    42    16    40    1
    43    20    41    1
    44    21    42    1
    45    25    43    1
    46    26    44    1
    47    27    45    1
    48    28    46    1
    49    31    47    1
@<TRIPOS>MOLECULE
../data/bude_mols_rdkit_confs2/molecule_88.pdb
 47 49 0 0 0
SMALL
GASTEIGER

@<TRIPOS>ATOM
      1  N1        -5.5430    0.7910    2.8110 N.pl3   1  UNL1       -0.3543
      2  C1        -6.0000    0.6050    1.4730 C.ar    1  UNL1        0.0829
      3  C2        -7.0880   -0.2400    1.3300 C.ar    1  UNL1        0.1458
      4  F1        -7.6510   -0.8090    2.4430 F       1  UNL1       -0.2035
      5  C3        -7.5750   -0.4840    0.0790 C.ar    1  UNL1       -0.0245
      6  C4        -6.9520    0.1270   -0.9960 C.ar    1  UNL1       -0.0571
      7  C5        -5.8680    0.9690   -0.8670 C.ar    1  UNL1       -0.0374
      8  C6        -5.3630    1.2260    0.4320 C.ar    1  UNL1        0.0714
      9  N2        -4.2940    2.1150    0.5910 N.pl3   1  UNL1       -0.2144
     10  S1        -2.7690    1.7760    1.2710 S.O2    1  UNL1        0.0724
     11  O1        -1.9200    3.0560    1.2570 O.2     1  UNL1       -0.1500
     12  O2        -2.9060    1.4160    2.7230 O.2     1  UNL1       -0.1500
     13  C7        -1.8920    0.5440    0.3870 C.ar    1  UNL1        0.1092
     14  C8        -2.4340   -0.6770    0.0700 C.ar    1  UNL1       -0.0350
     15  C9        -1.6880   -1.6490   -0.5510 C.ar    1  UNL1       -0.0592
     16  C10       -0.3480   -1.3850   -0.8630 C.ar    1  UNL1       -0.0495
     17  C11        0.2380   -0.1860   -0.5670 C.ar    1  UNL1        0.0400
     18  C12        1.6450    0.0410   -0.8290 C.2     1  UNL1        0.2602
     19  O3         2.1070    1.1920   -0.8810 O.2     1  UNL1       -0.2687
     20  N3         2.5560   -1.0490   -1.0280 N.am    1  UNL1       -0.2301
     21  N4         3.9400   -0.8970   -1.2520 N.am    1  UNL1       -0.2300
     22  C13        4.8090   -0.6060   -0.1950 C.2     1  UNL1        0.2629
     23  O4         4.2680   -0.4770    0.9430 O.2     1  UNL1       -0.2686
     24  C14        6.2260   -0.4630   -0.3250 C.ar    1  UNL1        0.0733
     25  C15        6.9830   -0.5240    0.8750 C.ar    1  UNL1       -0.0468
     26  C16        8.3630   -0.4530    0.8540 C.ar    1  UNL1       -0.0609
     27  C17        9.0490   -0.3190   -0.3330 C.ar    1  UNL1       -0.0590
     28  C18        8.3570   -0.2560   -1.4980 C.ar    1  UNL1       -0.0257
     29  C19        6.9610   -0.3300   -1.4660 C.ar    1  UNL1        0.1355
     30  F2         6.2900   -0.2480   -2.6500 F       1  UNL1       -0.2047
     31  C20       -0.5500    0.7540    0.0510 C.ar    1  UNL1       -0.0229
     32 H          -6.0047    0.3421    3.5557 H       1  UNL1        0.1425
     33 H          -4.7658    1.3683    2.9900 H       1  UNL1        0.1425
     34 H          -8.3856   -1.1070   -0.0621 H       1  UNL1        0.0647
     35 H          -7.3181   -0.0575   -1.9431 H       1  UNL1        0.0619
     36 H          -5.4343    1.4022   -1.6972 H       1  UNL1        0.0637
     37 H          -4.4389    3.0363    0.2757 H       1  UNL1        0.1737
     38 H          -3.4210   -0.8682    0.3028 H       1  UNL1        0.0637
     39 H          -2.1091   -2.5617   -0.7846 H       1  UNL1        0.0618
     40 H           0.2121   -2.1158   -1.3291 H       1  UNL1        0.0625
     41 H           2.1911   -1.9631   -1.0068 H       1  UNL1        0.1731
     42 H           4.2990   -0.9969   -2.1633 H       1  UNL1        0.1731
     43 H           6.4941   -0.6231    1.7784 H       1  UNL1        0.0626
     44 H           8.8877   -0.5011    1.7413 H       1  UNL1        0.0618
     45 H          10.0797   -0.2670   -0.3359 H       1  UNL1        0.0618
     46 H           8.8545   -0.1547   -2.3965 H       1  UNL1        0.0646
     47 H          -0.1282    1.6674    0.2807 H       1  UNL1        0.0645
@<TRIPOS>BOND
     1     1     2    1
     2     2     3   ar
     3     2     8   ar
     4     3     4    1
     5     3     5   ar
     6     5     6   ar
     7     6     7   ar
     8     7     8   ar
     9     8     9    1
    10     9    10    1
    11    10    11    2
    12    10    12    2
    13    10    13    1
    14    13    14   ar
    15    13    31   ar
    16    14    15   ar
    17    15    16   ar
    18    16    17   ar
    19    17    18    1
    20    17    31   ar
    21    18    19    2
    22    18    20   am
    23    20    21    1
    24    21    22   am
    25    22    23    2
    26    22    24    1
    27    24    25   ar
    28    24    29   ar
    29    25    26   ar
    30    26    27   ar
    31    27    28   ar
    32    28    29   ar
    33    29    30    1
    34     1    32    1
    35     1    33    1
    36     5    34    1
    37     6    35    1
    38     7    36    1
    39     9    37    1
    40    14    38    1
    41    15    39    1
    42    16    40    1
    43    20    41    1
    44    21    42    1
    45    25    43    1
    46    26    44    1
    47    27    45    1
    48    28    46    1
    49    31    47    1
@<TRIPOS>MOLECULE
../data/bude_mols_rdkit_confs2/molecule_88.pdb
 47 49 0 0 0
SMALL
GASTEIGER

@<TRIPOS>ATOM
      1  N1        -6.5510   -0.3910   -0.3390 N.pl3   1  UNL1       -0.3543
      2  C1        -5.4510    0.4960   -0.5970 C.ar    1  UNL1        0.0829
      3  C2        -5.3440    1.1820   -1.7890 C.ar    1  UNL1        0.1458
      4  F1        -6.3020    1.0140   -2.7370 F       1  UNL1       -0.2035
      5  C3        -4.2910    2.0260   -2.0300 C.ar    1  UNL1       -0.0245
      6  C4        -3.3310    2.1960   -1.0840 C.ar    1  UNL1       -0.0571
      7  C5        -3.4440    1.5000    0.1210 C.ar    1  UNL1       -0.0374
      8  C6        -4.4870    0.6470    0.3920 C.ar    1  UNL1        0.0714
      9  N2        -4.6270   -0.0630    1.6110 N.pl3   1  UNL1       -0.2144
     10  S1        -3.3610   -0.3900    2.6990 S.O2    1  UNL1        0.0724
     11  O1        -3.9110   -1.0980    3.9080 O.2     1  UNL1       -0.1500
     12  O2        -2.7350    0.8930    3.2010 O.2     1  UNL1       -0.1500
     13  C7        -2.1090   -1.3780    1.9650 C.ar    1  UNL1        0.1092
     14  C8        -2.2500   -2.7700    1.9440 C.ar    1  UNL1       -0.0350
     15  C9        -1.2440   -3.5160    1.3660 C.ar    1  UNL1       -0.0592
     16  C10       -0.1290   -2.9170    0.8210 C.ar    1  UNL1       -0.0495
     17  C11        0.0280   -1.5550    0.8320 C.ar    1  UNL1        0.0400
     18  C12        1.1810   -0.8780    0.2740 C.2     1  UNL1        0.2602
     19  O3         1.2510    0.3750    0.3120 O.2     1  UNL1       -0.2687
     20  N3         2.2230   -1.6050   -0.3100 N.am    1  UNL1       -0.2301
     21  N4         3.3240   -0.8760   -0.8400 N.am    1  UNL1       -0.2300
     22  C13        4.1400   -0.1030   -0.0070 C.2     1  UNL1        0.2629
     23  O4         3.8150   -0.1110    1.2320 O.2     1  UNL1       -0.2686
     24  C14        5.3050    0.6930   -0.4330 C.ar    1  UNL1        0.0733
     25  C15        5.9720    1.4650    0.5240 C.ar    1  UNL1       -0.0468
     26  C16        7.0590    2.2280    0.1820 C.ar    1  UNL1       -0.0609
     27  C17        7.5230    2.2550   -1.1160 C.ar    1  UNL1       -0.0590
     28  C18        6.8570    1.4910   -2.0440 C.ar    1  UNL1       -0.0257
     29  C19        5.7680    0.7220   -1.7180 C.ar    1  UNL1        0.1355
     30  F2         5.2020    0.0160   -2.7130 F       1  UNL1       -0.2047
     31  C20       -0.9990   -0.8050    1.4210 C.ar    1  UNL1       -0.0229
     32 H          -7.2502   -0.5192   -1.0201 H       1  UNL1        0.1425
     33 H          -6.6057   -0.8707    0.5190 H       1  UNL1        0.1425
     34 H          -4.2277    2.5309   -2.9278 H       1  UNL1        0.0647
     35 H          -2.5328    2.8280   -1.2529 H       1  UNL1        0.0619
     36 H          -2.7138    1.6315    0.8383 H       1  UNL1        0.0637
     37 H          -5.5249   -0.3917    1.8456 H       1  UNL1        0.1737
     38 H          -3.0827   -3.2254    2.3493 H       1  UNL1        0.0637
     39 H          -1.3281   -4.5443    1.3412 H       1  UNL1        0.0618
     40 H           0.6036   -3.5063    0.3954 H       1  UNL1        0.0625
     41 H           2.1957   -2.5882   -0.3530 H       1  UNL1        0.1731
     42 H           3.5140   -0.9161   -1.8052 H       1  UNL1        0.1731
     43 H           5.6413    1.4603    1.5016 H       1  UNL1        0.0626
     44 H           7.5356    2.7890    0.9053 H       1  UNL1        0.0618
     45 H           8.3398    2.8275   -1.3807 H       1  UNL1        0.0618
     46 H           7.1877    1.4957   -3.0216 H       1  UNL1        0.0646
     47 H          -0.9109    0.2230    1.4436 H       1  UNL1        0.0645
@<TRIPOS>BOND
     1     1     2    1
     2     2     3   ar
     3     2     8   ar
     4     3     4    1
     5     3     5   ar
     6     5     6   ar
     7     6     7   ar
     8     7     8   ar
     9     8     9    1
    10     9    10    1
    11    10    11    2
    12    10    12    2
    13    10    13    1
    14    13    14   ar
    15    13    31   ar
    16    14    15   ar
    17    15    16   ar
    18    16    17   ar
    19    17    18    1
    20    17    31   ar
    21    18    19    2
    22    18    20   am
    23    20    21    1
    24    21    22   am
    25    22    23    2
    26    22    24    1
    27    24    25   ar
    28    24    29   ar
    29    25    26   ar
    30    26    27   ar
    31    27    28   ar
    32    28    29   ar
    33    29    30    1
    34     1    32    1
    35     1    33    1
    36     5    34    1
    37     6    35    1
    38     7    36    1
    39     9    37    1
    40    14    38    1
    41    15    39    1
    42    16    40    1
    43    20    41    1
    44    21    42    1
    45    25    43    1
    46    26    44    1
    47    27    45    1
    48    28    46    1
    49    31    47    1
@<TRIPOS>MOLECULE
../data/bude_mols_rdkit_confs2/molecule_88.pdb
 47 49 0 0 0
SMALL
GASTEIGER

@<TRIPOS>ATOM
      1  N1        -5.1660   -1.7380   -1.3910 N.pl3   1  UNL1       -0.3543
      2  C1        -5.9710   -0.7670   -0.7460 C.ar    1  UNL1        0.0829
      3  C2        -7.2500   -1.0840   -0.3710 C.ar    1  UNL1        0.1458
      4  F1        -7.8040   -2.3190   -0.5910 F       1  UNL1       -0.2035
      5  C3        -8.0620   -0.1410    0.2650 C.ar    1  UNL1       -0.0245
      6  C4        -7.5800    1.1160    0.5200 C.ar    1  UNL1       -0.0571
      7  C5        -6.2990    1.4230    0.1410 C.ar    1  UNL1       -0.0374
      8  C6        -5.4570    0.5120   -0.4940 C.ar    1  UNL1        0.0714
      9  N2        -4.1320    0.8250   -0.8990 N.pl3   1  UNL1       -0.2144
     10  S1        -3.1270    1.7750    0.0870 S.O2    1  UNL1        0.0724
     11  O1        -2.4950    2.8340   -0.7990 O.2     1  UNL1       -0.1500
     12  O2        -3.8250    2.4990    1.1780 O.2     1  UNL1       -0.1500
     13  C7        -1.8270    0.8490    0.8080 C.ar    1  UNL1        0.1092
     14  C8        -2.0650    0.1120    1.9450 C.ar    1  UNL1       -0.0350
     15  C9        -1.0650   -0.6170    2.5300 C.ar    1  UNL1       -0.0592
     16  C10        0.1900   -0.5820    1.9320 C.ar    1  UNL1       -0.0495
     17  C11        0.4630    0.1380    0.8040 C.ar    1  UNL1        0.0400
     18  C12        1.8010    0.0890    0.2540 C.2     1  UNL1        0.2602
     19  O3         2.3220    1.1670   -0.1610 O.2     1  UNL1       -0.2687
     20  N3         2.5620   -1.1030    0.1500 N.am    1  UNL1       -0.2301
     21  N4         3.8720   -1.0570   -0.4110 N.am    1  UNL1       -0.2300
     22  C13        4.9210   -0.3450    0.2110 C.2     1  UNL1        0.2629
     23  O4         4.5640    0.2380    1.3090 O.2     1  UNL1       -0.2686
     24  C14        6.2820   -0.2230   -0.2570 C.ar    1  UNL1        0.0733
     25  C15        7.1670    0.5150    0.5180 C.ar    1  UNL1       -0.0468
     26  C16        8.4810    0.6780    0.1400 C.ar    1  UNL1       -0.0609
     27  C17        8.9590    0.1110   -1.0250 C.ar    1  UNL1       -0.0590
     28  C18        8.0800   -0.6210   -1.7920 C.ar    1  UNL1       -0.0257
     29  C19        6.7440   -0.7860   -1.4050 C.ar    1  UNL1        0.1355
     30  F2         5.9820   -1.5160   -2.2240 F       1  UNL1       -0.2047
     31  C20       -0.5760    0.8590    0.2460 C.ar    1  UNL1       -0.0229
     32 H          -5.5262   -2.6369   -1.5685 H       1  UNL1        0.1425
     33 H          -4.2464   -1.5139   -1.6617 H       1  UNL1        0.1425
     34 H          -9.0240   -0.3912    0.5424 H       1  UNL1        0.0647
     35 H          -8.1713    1.8196    0.9894 H       1  UNL1        0.0619
     36 H          -5.9419    2.3717    0.3347 H       1  UNL1        0.0637
     37 H          -3.7929    0.4880   -1.7596 H       1  UNL1        0.1737
     38 H          -3.0090    0.1087    2.3620 H       1  UNL1        0.0637
     39 H          -1.2361   -1.1720    3.3831 H       1  UNL1        0.0618
     40 H           0.9533   -1.1274    2.3621 H       1  UNL1        0.0625
     41 H           2.1877   -1.9579    0.4635 H       1  UNL1        0.1731
     42 H           4.0498   -1.5339   -1.2537 H       1  UNL1        0.1731
     43 H           6.8339    0.9491    1.3930 H       1  UNL1        0.0626
     44 H           9.1171    1.2313    0.7352 H       1  UNL1        0.0618
     45 H           9.9430    0.2319   -1.3116 H       1  UNL1        0.0618
     46 H           8.4115   -1.0556   -2.6673 H       1  UNL1        0.0646
     47 H          -0.4076    1.4140   -0.6076 H       1  UNL1        0.0645
@<TRIPOS>BOND
     1     1     2    1
     2     2     3   ar
     3     2     8   ar
     4     3     4    1
     5     3     5   ar
     6     5     6   ar
     7     6     7   ar
     8     7     8   ar
     9     8     9    1
    10     9    10    1
    11    10    11    2
    12    10    12    2
    13    10    13    1
    14    13    14   ar
    15    13    31   ar
    16    14    15   ar
    17    15    16   ar
    18    16    17   ar
    19    17    18    1
    20    17    31   ar
    21    18    19    2
    22    18    20   am
    23    20    21    1
    24    21    22   am
    25    22    23    2
    26    22    24    1
    27    24    25   ar
    28    24    29   ar
    29    25    26   ar
    30    26    27   ar
    31    27    28   ar
    32    28    29   ar
    33    29    30    1
    34     1    32    1
    35     1    33    1
    36     5    34    1
    37     6    35    1
    38     7    36    1
    39     9    37    1
    40    14    38    1
    41    15    39    1
    42    16    40    1
    43    20    41    1
    44    21    42    1
    45    25    43    1
    46    26    44    1
    47    27    45    1
    48    28    46    1
    49    31    47    1
@<TRIPOS>MOLECULE
../data/bude_mols_rdkit_confs2/molecule_88.pdb
 47 49 0 0 0
SMALL
GASTEIGER

@<TRIPOS>ATOM
      1  N1        -5.3110    0.3770   -2.0880 N.pl3   1  UNL1       -0.3543
      2  C1        -6.1280    0.1160   -0.9720 C.ar    1  UNL1        0.0829
      3  C2        -7.4800    0.4900   -1.1360 C.ar    1  UNL1        0.1458
      4  F1        -7.8790    1.0590   -2.2870 F       1  UNL1       -0.2035
      5  C3        -8.4040    0.2860   -0.1500 C.ar    1  UNL1       -0.0245
      6  C4        -8.0050   -0.2930    1.0160 C.ar    1  UNL1       -0.0571
      7  C5        -6.6920   -0.6520    1.1700 C.ar    1  UNL1       -0.0374
      8  C6        -5.7100   -0.4610    0.1860 C.ar    1  UNL1        0.0714
      9  N2        -4.3950   -0.8530    0.4930 N.pl3   1  UNL1       -0.2144
     10  S1        -3.0960   -1.2240   -0.5400 S.O2    1  UNL1        0.0724
     11  O1        -2.5680   -2.5930   -0.0480 O.2     1  UNL1       -0.1500
     12  O2        -3.4250   -1.4420   -1.9600 O.2     1  UNL1       -0.1500
     13  C7        -1.8170   -0.0600   -0.2740 C.ar    1  UNL1        0.1092
     14  C8        -2.0670    1.2830   -0.3810 C.ar    1  UNL1       -0.0350
     15  C9        -1.0550    2.2380   -0.2140 C.ar    1  UNL1       -0.0592
     16  C10        0.2140    1.8290    0.0630 C.ar    1  UNL1       -0.0495
     17  C11        0.4890    0.4630    0.1760 C.ar    1  UNL1        0.0400
     18  C12        1.8950    0.1360    0.4630 C.2     1  UNL1        0.2602
     19  O3         2.2610   -0.8450    1.1460 O.2     1  UNL1       -0.2687
     20  N3         2.9040    0.9910   -0.0690 N.am    1  UNL1       -0.2301
     21  N4         4.2610    0.8320    0.1340 N.am    1  UNL1       -0.2300
     22  C13        5.0170   -0.3250   -0.0620 C.2     1  UNL1        0.2629
     23  O4         4.3820   -1.3680   -0.4700 O.2     1  UNL1       -0.2686
     24  C14        6.4600   -0.4780    0.1520 C.ar    1  UNL1        0.0733
     25  C15        6.9680   -1.7650    0.1900 C.ar    1  UNL1       -0.0468
     26  C16        8.2950   -2.0210    0.4110 C.ar    1  UNL1       -0.0609
     27  C17        9.1680   -0.9510    0.6050 C.ar    1  UNL1       -0.0590
     28  C18        8.6560    0.3190    0.5640 C.ar    1  UNL1       -0.0257
     29  C19        7.3120    0.5670    0.3390 C.ar    1  UNL1        0.1355
     30  F2         6.8640    1.8640    0.2900 F       1  UNL1       -0.2047
     31  C20       -0.5080   -0.4530    0.0090 C.ar    1  UNL1       -0.0229
     32 H          -5.6941    0.7995   -2.8905 H       1  UNL1        0.1425
     33 H          -4.3564    0.1371   -2.0661 H       1  UNL1        0.1425
     34 H          -9.3878    0.5661   -0.2869 H       1  UNL1        0.0647
     35 H          -8.6840   -0.4595    1.7751 H       1  UNL1        0.0619
     36 H          -6.4086   -1.0882    2.0613 H       1  UNL1        0.0637
     37 H          -4.1955   -0.9236    1.4545 H       1  UNL1        0.1737
     38 H          -3.0266    1.5998   -0.5903 H       1  UNL1        0.0637
     39 H          -1.2699    3.2437   -0.3003 H       1  UNL1        0.0618
     40 H           0.9676    2.5228    0.1887 H       1  UNL1        0.0625
     41 H           2.6120    1.7512   -0.6222 H       1  UNL1        0.1731
     42 H           4.7504    1.6244    0.4530 H       1  UNL1        0.1731
     43 H           6.3245   -2.5590    0.0468 H       1  UNL1        0.0626
     44 H           8.6440   -2.9919    0.4337 H       1  UNL1        0.0618
     45 H          10.1732   -1.1116    0.7750 H       1  UNL1        0.0618
     46 H           9.2934    1.1182    0.7056 H       1  UNL1        0.0646
     47 H          -0.2897   -1.4581    0.0937 H       1  UNL1        0.0645
@<TRIPOS>BOND
     1     1     2    1
     2     2     3   ar
     3     2     8   ar
     4     3     4    1
     5     3     5   ar
     6     5     6   ar
     7     6     7   ar
     8     7     8   ar
     9     8     9    1
    10     9    10    1
    11    10    11    2
    12    10    12    2
    13    10    13    1
    14    13    14   ar
    15    13    31   ar
    16    14    15   ar
    17    15    16   ar
    18    16    17   ar
    19    17    18    1
    20    17    31   ar
    21    18    19    2
    22    18    20   am
    23    20    21    1
    24    21    22   am
    25    22    23    2
    26    22    24    1
    27    24    25   ar
    28    24    29   ar
    29    25    26   ar
    30    26    27   ar
    31    27    28   ar
    32    28    29   ar
    33    29    30    1
    34     1    32    1
    35     1    33    1
    36     5    34    1
    37     6    35    1
    38     7    36    1
    39     9    37    1
    40    14    38    1
    41    15    39    1
    42    16    40    1
    43    20    41    1
    44    21    42    1
    45    25    43    1
    46    26    44    1
    47    27    45    1
    48    28    46    1
    49    31    47    1
@<TRIPOS>MOLECULE
../data/bude_mols_rdkit_confs2/molecule_88.pdb
 47 49 0 0 0
SMALL
GASTEIGER

@<TRIPOS>ATOM
      1  N1        -6.0700   -0.8430    1.6960 N.pl3   1  UNL1       -0.3543
      2  C1        -5.1870    0.1050    1.1540 C.ar    1  UNL1        0.0829
      3  C2        -4.9590    1.2880    1.8270 C.ar    1  UNL1        0.1458
      4  F1        -5.5880    1.5310    3.0050 F       1  UNL1       -0.2035
      5  C3        -4.0960    2.2280    1.3070 C.ar    1  UNL1       -0.0245
      6  C4        -3.4560    1.9830    0.1060 C.ar    1  UNL1       -0.0571
      7  C5        -3.6980    0.7800   -0.5610 C.ar    1  UNL1       -0.0374
      8  C6        -4.5540   -0.1690   -0.0620 C.ar    1  UNL1        0.0714
      9  N2        -4.8120   -1.3780   -0.7320 N.pl3   1  UNL1       -0.2144
     10  S1        -3.6910   -2.0370   -1.8290 S.O2    1  UNL1        0.0724
     11  O1        -4.2410   -3.3100   -2.4640 O.2     1  UNL1       -0.1500
     12  O2        -3.4800   -1.0950   -3.0080 O.2     1  UNL1       -0.1500
     13  C7        -2.1560   -2.4390   -1.1110 C.ar    1  UNL1        0.1092
     14  C8        -1.9690   -3.6390   -0.4510 C.ar    1  UNL1       -0.0350
     15  C9        -0.7580   -3.9690    0.1090 C.ar    1  UNL1       -0.0592
     16  C10        0.2690   -3.0500   -0.0170 C.ar    1  UNL1       -0.0495
     17  C11        0.1420   -1.8430   -0.6610 C.ar    1  UNL1        0.0400
     18  C12        1.2430   -0.9010   -0.7820 C.2     1  UNL1        0.2602
     19  O3         1.0220    0.2100   -1.3560 O.2     1  UNL1       -0.2687
     20  N3         2.5560   -1.1100   -0.3120 N.am    1  UNL1       -0.2301
     21  N4         3.5650   -0.1060   -0.4890 N.am    1  UNL1       -0.2300
     22  C13        4.0470    0.6290    0.6080 C.2     1  UNL1        0.2629
     23  O4         3.5240    0.3290    1.7330 O.2     1  UNL1       -0.2686
     24  C14        5.0630    1.6600    0.5220 C.ar    1  UNL1        0.0733
     25  C15        5.5340    2.2200    1.7210 C.ar    1  UNL1       -0.0468
     26  C16        6.5010    3.2000    1.7610 C.ar    1  UNL1       -0.0609
     27  C17        7.0620    3.6870    0.6030 C.ar    1  UNL1       -0.0590
     28  C18        6.6160    3.1540   -0.5810 C.ar    1  UNL1       -0.0257
     29  C19        5.6300    2.1540   -0.6180 C.ar    1  UNL1        0.1355
     30  F2         5.2350    1.6810   -1.8260 F       1  UNL1       -0.2047
     31  C20       -1.1130   -1.5560   -1.2130 C.ar    1  UNL1       -0.0229
     32 H          -6.5220   -0.6620    2.5517 H       1  UNL1        0.1425
     33 H          -6.2370   -1.6886    1.2203 H       1  UNL1        0.1425
     34 H          -3.9279    3.1120    1.8123 H       1  UNL1        0.0647
     35 H          -2.8078    2.6802   -0.2924 H       1  UNL1        0.0619
     36 H          -3.2182    0.5994   -1.4567 H       1  UNL1        0.0637
     37 H          -5.6579   -1.8524   -0.5630 H       1  UNL1        0.1737
     38 H          -2.7564   -4.3020   -0.3771 H       1  UNL1        0.0637
     39 H          -0.6203   -4.8647    0.6028 H       1  UNL1        0.0618
     40 H           1.1845   -3.2852    0.3973 H       1  UNL1        0.0625
     41 H           2.7824   -1.9536    0.1422 H       1  UNL1        0.1731
     42 H           3.9239    0.0703   -1.3886 H       1  UNL1        0.1731
     43 H           5.1377    1.8820    2.6119 H       1  UNL1        0.0626
     44 H           6.8090    3.5741    2.6722 H       1  UNL1        0.0618
     45 H           7.7868    4.4213    0.6235 H       1  UNL1        0.0618
     46 H           7.0160    3.4974   -1.4682 H       1  UNL1        0.0646
     47 H          -1.2551   -0.6610   -1.7068 H       1  UNL1        0.0645
@<TRIPOS>BOND
     1     1     2    1
     2     2     3   ar
     3     2     8   ar
     4     3     4    1
     5     3     5   ar
     6     5     6   ar
     7     6     7   ar
     8     7     8   ar
     9     8     9    1
    10     9    10    1
    11    10    11    2
    12    10    12    2
    13    10    13    1
    14    13    14   ar
    15    13    31   ar
    16    14    15   ar
    17    15    16   ar
    18    16    17   ar
    19    17    18    1
    20    17    31   ar
    21    18    19    2
    22    18    20   am
    23    20    21    1
    24    21    22   am
    25    22    23    2
    26    22    24    1
    27    24    25   ar
    28    24    29   ar
    29    25    26   ar
    30    26    27   ar
    31    27    28   ar
    32    28    29   ar
    33    29    30    1
    34     1    32    1
    35     1    33    1
    36     5    34    1
    37     6    35    1
    38     7    36    1
    39     9    37    1
    40    14    38    1
    41    15    39    1
    42    16    40    1
    43    20    41    1
    44    21    42    1
    45    25    43    1
    46    26    44    1
    47    27    45    1
    48    28    46    1
    49    31    47    1
@<TRIPOS>MOLECULE
../data/bude_mols_rdkit_confs2/molecule_88.pdb
 47 49 0 0 0
SMALL
GASTEIGER

@<TRIPOS>ATOM
      1  N1         4.5610    2.5620   -1.0690 N.pl3   1  UNL1       -0.3543
      2  C1         5.2190    1.5080   -0.4010 C.ar    1  UNL1        0.0829
      3  C2         6.2870    0.8770   -1.0230 C.ar    1  UNL1        0.1458
      4  F1         6.7040    1.2580   -2.2530 F       1  UNL1       -0.2035
      5  C3         6.9660   -0.1660   -0.4160 C.ar    1  UNL1       -0.0245
      6  C4         6.5550   -0.5720    0.8390 C.ar    1  UNL1       -0.0571
      7  C5         5.4940    0.0600    1.4470 C.ar    1  UNL1       -0.0374
      8  C6         4.8060    1.1060    0.8480 C.ar    1  UNL1        0.0714
      9  N2         3.7320    1.7740    1.4550 N.pl3   1  UNL1       -0.2144
     10  S1         2.6290    1.0140    2.5480 S.O2    1  UNL1        0.0724
     11  O1         1.5780    1.9810    3.0120 O.2     1  UNL1       -0.1500
     12  O2         3.3180    0.4050    3.7300 O.2     1  UNL1       -0.1500
     13  C7         1.7910   -0.2820    1.7090 C.ar    1  UNL1        0.1092
     14  C8         2.3790   -1.5190    1.6610 C.ar    1  UNL1       -0.0350
     15  C9         1.6960   -2.5230    0.9880 C.ar    1  UNL1       -0.0592
     16  C10        0.4760   -2.2760    0.3960 C.ar    1  UNL1       -0.0495
     17  C11       -0.1170   -1.0260    0.4460 C.ar    1  UNL1        0.0400
     18  C12       -1.3990   -0.7400   -0.1700 C.2     1  UNL1        0.2602
     19  O3        -1.8730   -1.6000   -0.9830 O.2     1  UNL1       -0.2687
     20  N3        -2.1660    0.4060    0.0540 N.am    1  UNL1       -0.2301
     21  N4        -3.4280    0.6120   -0.5920 N.am    1  UNL1       -0.2300
     22  C13       -4.4270   -0.3440   -0.4270 C.2     1  UNL1        0.2629
     23  O4        -4.1510   -1.3690    0.3040 O.2     1  UNL1       -0.2686
     24  C14       -5.7420   -0.2600   -1.0200 C.ar    1  UNL1        0.0733
     25  C15       -6.5800   -1.3850   -0.9810 C.ar    1  UNL1       -0.0468
     26  C16       -7.8390   -1.4050   -1.5330 C.ar    1  UNL1       -0.0609
     27  C17       -8.3410   -0.2890   -2.1620 C.ar    1  UNL1       -0.0590
     28  C18       -7.5330    0.8150   -2.2070 C.ar    1  UNL1       -0.0257
     29  C19       -6.2450    0.8450   -1.6470 C.ar    1  UNL1        0.1355
     30  F2        -5.5240    1.9880   -1.7300 F       1  UNL1       -0.2047
     31  C20        0.5540   -0.0320    1.1090 C.ar    1  UNL1       -0.0229
     32 H           4.8633    2.8432   -1.9627 H       1  UNL1        0.1425
     33 H           3.7995    3.0164   -0.6414 H       1  UNL1        0.1425
     34 H           7.7585   -0.6281   -0.8888 H       1  UNL1        0.0647
     35 H           7.0413   -1.3457    1.3185 H       1  UNL1        0.0619
     36 H           5.1988   -0.2560    2.3840 H       1  UNL1        0.0637
     37 H           3.5992    2.7271    1.2473 H       1  UNL1        0.1737
     38 H           3.2925   -1.6970    2.1070 H       1  UNL1        0.0637
     39 H           2.1076   -3.4676    0.9302 H       1  UNL1        0.0618
     40 H          -0.0078   -3.0426   -0.0972 H       1  UNL1        0.0625
     41 H          -1.8292    1.0924    0.6742 H       1  UNL1        0.1731
     42 H          -3.5858    1.4134   -1.1416 H       1  UNL1        0.1731
     43 H          -6.2344   -2.2387   -0.5154 H       1  UNL1        0.0626
     44 H          -8.4109   -2.2621   -1.4752 H       1  UNL1        0.0618
     45 H          -9.2841   -0.2845   -2.5809 H       1  UNL1        0.0618
     46 H          -7.8864    1.6647   -2.6740 H       1  UNL1        0.0646
     47 H           0.1410    0.9121    1.1658 H       1  UNL1        0.0645
@<TRIPOS>BOND
     1     1     2    1
     2     2     3   ar
     3     2     8   ar
     4     3     4    1
     5     3     5   ar
     6     5     6   ar
     7     6     7   ar
     8     7     8   ar
     9     8     9    1
    10     9    10    1
    11    10    11    2
    12    10    12    2
    13    10    13    1
    14    13    14   ar
    15    13    31   ar
    16    14    15   ar
    17    15    16   ar
    18    16    17   ar
    19    17    18    1
    20    17    31   ar
    21    18    19    2
    22    18    20   am
    23    20    21    1
    24    21    22   am
    25    22    23    2
    26    22    24    1
    27    24    25   ar
    28    24    29   ar
    29    25    26   ar
    30    26    27   ar
    31    27    28   ar
    32    28    29   ar
    33    29    30    1
    34     1    32    1
    35     1    33    1
    36     5    34    1
    37     6    35    1
    38     7    36    1
    39     9    37    1
    40    14    38    1
    41    15    39    1
    42    16    40    1
    43    20    41    1
    44    21    42    1
    45    25    43    1
    46    26    44    1
    47    27    45    1
    48    28    46    1
    49    31    47    1
@<TRIPOS>MOLECULE
../data/bude_mols_rdkit_confs2/molecule_88.pdb
 47 49 0 0 0
SMALL
GASTEIGER

@<TRIPOS>ATOM
      1  N1        -6.0140    2.4660   -1.2130 N.pl3   1  UNL1       -0.3543
      2  C1        -6.1180    1.3560   -0.3310 C.ar    1  UNL1        0.0829
      3  C2        -7.3580    0.9380    0.0720 C.ar    1  UNL1        0.1458
      4  F1        -8.5100    1.5240   -0.3410 F       1  UNL1       -0.2035
      5  C3        -7.4270   -0.1390    0.9400 C.ar    1  UNL1       -0.0245
      6  C4        -6.3180   -0.7770    1.3910 C.ar    1  UNL1       -0.0571
      7  C5        -5.0600   -0.3170    0.9540 C.ar    1  UNL1       -0.0374
      8  C6        -4.9320    0.7230    0.1090 C.ar    1  UNL1        0.0714
      9  N2        -3.7460    1.2620   -0.3930 N.pl3   1  UNL1       -0.2144
     10  S1        -2.5510    0.4260   -1.2250 S.O2    1  UNL1        0.0724
     11  O1        -1.4950    1.4540   -1.6480 O.2     1  UNL1       -0.1500
     12  O2        -3.1580   -0.1650   -2.4970 O.2     1  UNL1       -0.1500
     13  C7        -1.7240   -0.8430   -0.3890 C.ar    1  UNL1        0.1092
     14  C8        -2.2250   -2.0850   -0.0810 C.ar    1  UNL1       -0.0350
     15  C9        -1.4880   -3.0850    0.5220 C.ar    1  UNL1       -0.0592
     16  C10       -0.1400   -2.8380    0.8470 C.ar    1  UNL1       -0.0495
     17  C11        0.3950   -1.6230    0.5550 C.ar    1  UNL1        0.0400
     18  C12        1.8280   -1.3090    0.8020 C.2     1  UNL1        0.2602
     19  O3         2.2800   -0.9380    1.8910 O.2     1  UNL1       -0.2687
     20  N3         2.7090   -1.4480   -0.3070 N.am    1  UNL1       -0.2301
     21  N4         4.0700   -1.1720   -0.2770 N.am    1  UNL1       -0.2300
     22  C13        4.5380    0.1670   -0.1470 C.2     1  UNL1        0.2629
     23  O4         3.5840    1.0250   -0.0410 O.2     1  UNL1       -0.2686
     24  C14        5.8810    0.6230   -0.1260 C.ar    1  UNL1        0.0733
     25  C15        6.0920    1.9800    0.2170 C.ar    1  UNL1       -0.0468
     26  C16        7.3380    2.5450    0.2610 C.ar    1  UNL1       -0.0609
     27  C17        8.4460    1.7850   -0.0360 C.ar    1  UNL1       -0.0590
     28  C18        8.2700    0.4690   -0.3680 C.ar    1  UNL1       -0.0257
     29  C19        7.0100   -0.0780   -0.4060 C.ar    1  UNL1        0.1355
     30  F2         6.9000   -1.3670   -0.7400 F       1  UNL1       -0.2047
     31  C20       -0.3640   -0.6740   -0.0310 C.ar    1  UNL1       -0.0229
     32 H          -6.8276    2.9203   -1.5306 H       1  UNL1        0.1425
     33 H          -5.1283    2.7805   -1.5062 H       1  UNL1        0.1425
     34 H          -8.3535   -0.4673    1.2544 H       1  UNL1        0.0647
     35 H          -6.3938   -1.5781    2.0371 H       1  UNL1        0.0619
     36 H          -4.2092   -0.7928    1.2927 H       1  UNL1        0.0637
     37 H          -3.5961    2.2237   -0.2451 H       1  UNL1        0.1737
     38 H          -3.2108   -2.2821   -0.3143 H       1  UNL1        0.0637
     39 H          -1.9183   -3.9994    0.7313 H       1  UNL1        0.0618
     40 H           0.4324   -3.5678    1.2996 H       1  UNL1        0.0625
     41 H           2.3259   -1.7627   -1.1575 H       1  UNL1        0.1731
     42 H           4.7181   -1.9098   -0.3463 H       1  UNL1        0.1731
     43 H           5.2737    2.5668    0.4429 H       1  UNL1        0.0626
     44 H           7.4462    3.5390    0.5164 H       1  UNL1        0.0618
     45 H           9.3909    2.1991   -0.0089 H       1  UNL1        0.0618
     46 H           9.0897   -0.1169   -0.5915 H       1  UNL1        0.0646
     47 H           0.0764    0.2374   -0.2322 H       1  UNL1        0.0645
@<TRIPOS>BOND
     1     1     2    1
     2     2     3   ar
     3     2     8   ar
     4     3     4    1
     5     3     5   ar
     6     5     6   ar
     7     6     7   ar
     8     7     8   ar
     9     8     9    1
    10     9    10    1
    11    10    11    2
    12    10    12    2
    13    10    13    1
    14    13    14   ar
    15    13    31   ar
    16    14    15   ar
    17    15    16   ar
    18    16    17   ar
    19    17    18    1
    20    17    31   ar
    21    18    19    2
    22    18    20   am
    23    20    21    1
    24    21    22   am
    25    22    23    2
    26    22    24    1
    27    24    25   ar
    28    24    29   ar
    29    25    26   ar
    30    26    27   ar
    31    27    28   ar
    32    28    29   ar
    33    29    30    1
    34     1    32    1
    35     1    33    1
    36     5    34    1
    37     6    35    1
    38     7    36    1
    39     9    37    1
    40    14    38    1
    41    15    39    1
    42    16    40    1
    43    20    41    1
    44    21    42    1
    45    25    43    1
    46    26    44    1
    47    27    45    1
    48    28    46    1
    49    31    47    1
@<TRIPOS>MOLECULE
../data/bude_mols_rdkit_confs2/molecule_88.pdb
 47 49 0 0 0
SMALL
GASTEIGER

@<TRIPOS>ATOM
      1  N1        -6.8400   -2.0790    0.7830 N.pl3   1  UNL1       -0.3543
      2  C1        -6.3980   -1.0710   -0.1070 C.ar    1  UNL1        0.0829
      3  C2        -7.3320   -0.2410   -0.7030 C.ar    1  UNL1        0.1458
      4  F1        -8.6600   -0.3790   -0.4520 F       1  UNL1       -0.2035
      5  C3        -6.9080    0.7580   -1.5790 C.ar    1  UNL1       -0.0245
      6  C4        -5.5660    0.9050   -1.8380 C.ar    1  UNL1       -0.0571
      7  C5        -4.6070    0.0760   -1.2460 C.ar    1  UNL1       -0.0374
      8  C6        -5.0560   -0.9170   -0.3730 C.ar    1  UNL1        0.0714
      9  N2        -4.1470   -1.8170    0.2570 N.pl3   1  UNL1       -0.2144
     10  S1        -3.0430   -1.3190    1.4880 S.O2    1  UNL1        0.0724
     11  O1        -2.3180   -2.5130    2.0610 O.2     1  UNL1       -0.1500
     12  O2        -3.8410   -0.7190    2.6060 O.2     1  UNL1       -0.1500
     13  C7        -1.9330   -0.1240    0.8940 C.ar    1  UNL1        0.1092
     14  C8        -2.3360    1.2070    0.8920 C.ar    1  UNL1       -0.0350
     15  C9        -1.4930    2.2050    0.4370 C.ar    1  UNL1       -0.0592
     16  C10       -0.2320    1.8450   -0.0180 C.ar    1  UNL1       -0.0495
     17  C11        0.2020    0.5410   -0.0310 C.ar    1  UNL1        0.0400
     18  C12        1.5350    0.2490   -0.5180 C.2     1  UNL1        0.2602
     19  O3         1.8080    0.4840   -1.7230 O.2     1  UNL1       -0.2687
     20  N3         2.4940   -0.2900    0.3660 N.am    1  UNL1       -0.2301
     21  N4         3.8300   -0.5950   -0.0610 N.am    1  UNL1       -0.2300
     22  C13        4.8550    0.1590    0.5320 C.2     1  UNL1        0.2629
     23  O4         4.5680    1.0320    1.3720 O.2     1  UNL1       -0.2686
     24  C14        6.2530   -0.0480    0.1940 C.ar    1  UNL1        0.0733
     25  C15        7.1510    0.9740    0.5100 C.ar    1  UNL1       -0.0468
     26  C16        8.4690    0.8080    0.1750 C.ar    1  UNL1       -0.0609
     27  C17        8.9170   -0.3180   -0.4510 C.ar    1  UNL1       -0.0590
     28  C18        8.0270   -1.3180   -0.7580 C.ar    1  UNL1       -0.0257
     29  C19        6.6580   -1.1920   -0.4320 C.ar    1  UNL1        0.1355
     30  F2         5.8500   -2.2310   -0.7510 F       1  UNL1       -0.2047
     31  C20       -0.6730   -0.4100    0.4310 C.ar    1  UNL1       -0.0229
     32 H          -7.8009   -2.1843    0.9693 H       1  UNL1        0.1425
     33 H          -6.1865   -2.6748    1.2157 H       1  UNL1        0.1425
     34 H          -7.5961    1.3817   -2.0290 H       1  UNL1        0.0647
     35 H          -5.2578    1.6465   -2.4863 H       1  UNL1        0.0619
     36 H          -3.6018    0.1944   -1.4477 H       1  UNL1        0.0637
     37 H          -4.1489   -2.7613   -0.0213 H       1  UNL1        0.1737
     38 H          -3.2776    1.4538    1.2349 H       1  UNL1        0.0637
     39 H          -1.7940    3.1921    0.4359 H       1  UNL1        0.0618
     40 H           0.4030    2.5836   -0.3590 H       1  UNL1        0.0625
     41 H           2.2396   -0.4616    1.3015 H       1  UNL1        0.1731
     42 H           4.0166   -1.2922   -0.7306 H       1  UNL1        0.1731
     43 H           6.8298    1.8326    0.9839 H       1  UNL1        0.0626
     44 H           9.1421    1.5563    0.4028 H       1  UNL1        0.0618
     45 H           9.9156   -0.4176   -0.6918 H       1  UNL1        0.0618
     46 H           8.3620   -2.1712   -1.2322 H       1  UNL1        0.0646
     47 H          -0.3664   -1.3954    0.4302 H       1  UNL1        0.0645
@<TRIPOS>BOND
     1     1     2    1
     2     2     3   ar
     3     2     8   ar
     4     3     4    1
     5     3     5   ar
     6     5     6   ar
     7     6     7   ar
     8     7     8   ar
     9     8     9    1
    10     9    10    1
    11    10    11    2
    12    10    12    2
    13    10    13    1
    14    13    14   ar
    15    13    31   ar
    16    14    15   ar
    17    15    16   ar
    18    16    17   ar
    19    17    18    1
    20    17    31   ar
    21    18    19    2
    22    18    20   am
    23    20    21    1
    24    21    22   am
    25    22    23    2
    26    22    24    1
    27    24    25   ar
    28    24    29   ar
    29    25    26   ar
    30    26    27   ar
    31    27    28   ar
    32    28    29   ar
    33    29    30    1
    34     1    32    1
    35     1    33    1
    36     5    34    1
    37     6    35    1
    38     7    36    1
    39     9    37    1
    40    14    38    1
    41    15    39    1
    42    16    40    1
    43    20    41    1
    44    21    42    1
    45    25    43    1
    46    26    44    1
    47    27    45    1
    48    28    46    1
    49    31    47    1
@<TRIPOS>MOLECULE
../data/bude_mols_rdkit_confs2/molecule_88.pdb
 47 49 0 0 0
SMALL
GASTEIGER

@<TRIPOS>ATOM
      1  N1        -5.3610    0.1450   -1.4570 N.pl3   1  UNL1       -0.3543
      2  C1        -6.0010   -0.1140   -0.2230 C.ar    1  UNL1        0.0829
      3  C2        -7.4050   -0.1510   -0.2650 C.ar    1  UNL1        0.1458
      4  F1        -8.0250    0.0900   -1.4600 F       1  UNL1       -0.2035
      5  C3        -8.1190   -0.4230    0.8760 C.ar    1  UNL1       -0.0245
      6  C4        -7.4340   -0.6550    2.0440 C.ar    1  UNL1       -0.0571
      7  C5        -6.0640   -0.6130    2.0610 C.ar    1  UNL1       -0.0374
      8  C6        -5.2900   -0.3360    0.9100 C.ar    1  UNL1        0.0714
      9  N2        -3.9060   -0.3070    1.0380 N.pl3   1  UNL1       -0.2144
     10  S1        -2.6830   -0.6240   -0.0920 S.O2    1  UNL1        0.0724
     11  O1        -1.7950   -1.7030    0.5790 O.2     1  UNL1       -0.1500
     12  O2        -3.1160   -1.2410   -1.3600 O.2     1  UNL1       -0.1500
     13  C7        -1.6810    0.7990   -0.3150 C.ar    1  UNL1        0.1092
     14  C8        -2.1430    2.0390   -0.6650 C.ar    1  UNL1       -0.0350
     15  C9        -1.2820    3.1250   -0.8890 C.ar    1  UNL1       -0.0592
     16  C10        0.0770    2.9310   -0.7500 C.ar    1  UNL1       -0.0495
     17  C11        0.6010    1.6810   -0.3930 C.ar    1  UNL1        0.0400
     18  C12        2.0450    1.5430   -0.2830 C.2     1  UNL1        0.2602
     19  O3         2.8050    2.4480   -0.7090 O.2     1  UNL1       -0.2687
     20  N3         2.6320    0.3960    0.2990 N.am    1  UNL1       -0.2301
     21  N4         4.0350    0.2560    0.4010 N.am    1  UNL1       -0.2300
     22  C13        4.6420   -0.8750   -0.1390 C.2     1  UNL1        0.2629
     23  O4         3.8670   -1.7380   -0.7000 O.2     1  UNL1       -0.2686
     24  C14        6.0610   -1.1180   -0.0990 C.ar    1  UNL1        0.0733
     25  C15        6.4910   -2.4110   -0.4220 C.ar    1  UNL1       -0.0468
     26  C16        7.8440   -2.6650   -0.3760 C.ar    1  UNL1       -0.0609
     27  C17        8.7800   -1.7120   -0.0280 C.ar    1  UNL1       -0.0590
     28  C18        8.3590   -0.4450    0.2900 C.ar    1  UNL1       -0.0257
     29  C19        6.9840   -0.1720    0.2460 C.ar    1  UNL1        0.1355
     30  F2         6.6260    1.1070    0.5570 F       1  UNL1       -0.2047
     31  C20       -0.2990    0.6890   -0.1960 C.ar    1  UNL1       -0.0229
     32 H          -5.8984    0.3033   -2.2666 H       1  UNL1        0.1425
     33 H          -4.3780    0.1671   -1.5066 H       1  UNL1        0.1425
     34 H          -9.1504   -0.4526    0.8565 H       1  UNL1        0.0647
     35 H          -7.9528   -0.8617    2.9119 H       1  UNL1        0.0619
     36 H          -5.5759   -0.7913    2.9526 H       1  UNL1        0.0637
     37 H          -3.5822   -0.0613    1.9347 H       1  UNL1        0.1737
     38 H          -3.1601    2.1806   -0.7678 H       1  UNL1        0.0637
     39 H          -1.6578    4.0494   -1.1522 H       1  UNL1        0.0618
     40 H           0.7201    3.7217   -0.9120 H       1  UNL1        0.0625
     41 H           2.0507   -0.3212    0.6409 H       1  UNL1        0.1731
     42 H           4.5749    0.9478    0.8472 H       1  UNL1        0.1731
     43 H           5.8179   -3.1476   -0.6852 H       1  UNL1        0.0626
     44 H           8.1739   -3.6137   -0.6132 H       1  UNL1        0.0618
     45 H           9.7841   -1.9493   -0.0072 H       1  UNL1        0.0618
     46 H           9.0362    0.2874    0.5545 H       1  UNL1        0.0646
     47 H           0.0752   -0.2360    0.0673 H       1  UNL1        0.0645
@<TRIPOS>BOND
     1     1     2    1
     2     2     3   ar
     3     2     8   ar
     4     3     4    1
     5     3     5   ar
     6     5     6   ar
     7     6     7   ar
     8     7     8   ar
     9     8     9    1
    10     9    10    1
    11    10    11    2
    12    10    12    2
    13    10    13    1
    14    13    14   ar
    15    13    31   ar
    16    14    15   ar
    17    15    16   ar
    18    16    17   ar
    19    17    18    1
    20    17    31   ar
    21    18    19    2
    22    18    20   am
    23    20    21    1
    24    21    22   am
    25    22    23    2
    26    22    24    1
    27    24    25   ar
    28    24    29   ar
    29    25    26   ar
    30    26    27   ar
    31    27    28   ar
    32    28    29   ar
    33    29    30    1
    34     1    32    1
    35     1    33    1
    36     5    34    1
    37     6    35    1
    38     7    36    1
    39     9    37    1
    40    14    38    1
    41    15    39    1
    42    16    40    1
    43    20    41    1
    44    21    42    1
    45    25    43    1
    46    26    44    1
    47    27    45    1
    48    28    46    1
    49    31    47    1
@<TRIPOS>MOLECULE
../data/bude_mols_rdkit_confs2/molecule_88.pdb
 47 49 0 0 0
SMALL
GASTEIGER

@<TRIPOS>ATOM
      1  N1         6.2030   -0.0810    1.8010 N.pl3   1  UNL1       -0.3543
      2  C1         5.1960    0.5760    1.0240 C.ar    1  UNL1        0.0829
      3  C2         5.0230    1.9300    1.2070 C.ar    1  UNL1        0.1458
      4  F1         5.8100    2.5860    2.1230 F       1  UNL1       -0.2035
      5  C3         4.0740    2.6300    0.4870 C.ar    1  UNL1       -0.0245
      6  C4         3.3130    1.9140   -0.4190 C.ar    1  UNL1       -0.0571
      7  C5         3.4890    0.5470   -0.6040 C.ar    1  UNL1       -0.0374
      8  C6         4.4210   -0.1320    0.1070 C.ar    1  UNL1        0.0714
      9  N2         4.6200   -1.5130   -0.0620 N.pl3   1  UNL1       -0.2144
     10  S1         3.3760   -2.4880   -0.7320 S.O2    1  UNL1        0.0724
     11  O1         3.0900   -2.1060   -2.1690 O.2     1  UNL1       -0.1500
     12  O2         3.9180   -3.9170   -0.7900 O.2     1  UNL1       -0.1500
     13  C7         1.9390   -2.4860    0.2360 C.ar    1  UNL1        0.1092
     14  C8         1.9000   -3.4100    1.2880 C.ar    1  UNL1       -0.0350
     15  C9         0.8070   -3.4950    2.1050 C.ar    1  UNL1       -0.0592
     16  C10       -0.2730   -2.6460    1.8770 C.ar    1  UNL1       -0.0495
     17  C11       -0.2700   -1.7280    0.8550 C.ar    1  UNL1        0.0400
     18  C12       -1.4270   -0.8770    0.6670 C.2     1  UNL1        0.2602
     19  O3        -2.4780   -1.1390    1.3050 O.2     1  UNL1       -0.2687
     20  N3        -1.4640    0.2390   -0.1880 N.am    1  UNL1       -0.2301
     21  N4        -2.5840    1.0730   -0.3790 N.am    1  UNL1       -0.2300
     22  C13       -3.7970    0.6120   -0.9130 C.2     1  UNL1        0.2629
     23  O4        -3.7940   -0.6440   -1.2100 O.2     1  UNL1       -0.2686
     24  C14       -4.9960    1.4030   -1.1430 C.ar    1  UNL1        0.0733
     25  C15       -6.1210    0.7580   -1.6820 C.ar    1  UNL1       -0.0468
     26  C16       -7.2900    1.4230   -1.9340 C.ar    1  UNL1       -0.0609
     27  C17       -7.3810    2.7660   -1.6550 C.ar    1  UNL1       -0.0590
     28  C18       -6.3140    3.4550   -1.1260 C.ar    1  UNL1       -0.0257
     29  C19       -5.1440    2.7350   -0.8870 C.ar    1  UNL1        0.1355
     30  F2        -4.1000    3.4290   -0.3680 F       1  UNL1       -0.2047
     31  C20        0.8620   -1.6790    0.0520 C.ar    1  UNL1       -0.0229
     32 H           6.7419    0.4335    2.4445 H       1  UNL1        0.1425
     33 H           6.3566   -1.0473    1.6918 H       1  UNL1        0.1425
     34 H           3.9387    3.6445    0.6197 H       1  UNL1        0.0647
     35 H           2.5953    2.4074   -0.9726 H       1  UNL1        0.0619
     36 H           2.9038    0.0448   -1.2898 H       1  UNL1        0.0637
     37 H           5.4749   -1.9222    0.2045 H       1  UNL1        0.1737
     38 H           2.7060   -4.0342    1.4484 H       1  UNL1        0.0637
     39 H           0.7828   -4.1777    2.8786 H       1  UNL1        0.0618
     40 H          -1.0987   -2.7082    2.4930 H       1  UNL1        0.0625
     41 H          -0.6456    0.4540   -0.6912 H       1  UNL1        0.1731
     42 H          -2.5121    2.0218   -0.1264 H       1  UNL1        0.1731
     43 H          -6.0642   -0.2502   -1.8949 H       1  UNL1        0.0626
     44 H          -8.0985    0.9194   -2.3311 H       1  UNL1        0.0618
     45 H          -8.2638    3.2654   -1.8454 H       1  UNL1        0.0618
     46 H          -6.3770    4.4632   -0.9148 H       1  UNL1        0.0646
     47 H           0.8861   -0.9966   -0.7218 H       1  UNL1        0.0645
@<TRIPOS>BOND
     1     1     2    1
     2     2     3   ar
     3     2     8   ar
     4     3     4    1
     5     3     5   ar
     6     5     6   ar
     7     6     7   ar
     8     7     8   ar
     9     8     9    1
    10     9    10    1
    11    10    11    2
    12    10    12    2
    13    10    13    1
    14    13    14   ar
    15    13    31   ar
    16    14    15   ar
    17    15    16   ar
    18    16    17   ar
    19    17    18    1
    20    17    31   ar
    21    18    19    2
    22    18    20   am
    23    20    21    1
    24    21    22   am
    25    22    23    2
    26    22    24    1
    27    24    25   ar
    28    24    29   ar
    29    25    26   ar
    30    26    27   ar
    31    27    28   ar
    32    28    29   ar
    33    29    30    1
    34     1    32    1
    35     1    33    1
    36     5    34    1
    37     6    35    1
    38     7    36    1
    39     9    37    1
    40    14    38    1
    41    15    39    1
    42    16    40    1
    43    20    41    1
    44    21    42    1
    45    25    43    1
    46    26    44    1
    47    27    45    1
    48    28    46    1
    49    31    47    1
@<TRIPOS>MOLECULE
../data/bude_mols_rdkit_confs2/molecule_88.pdb
 47 49 0 0 0
SMALL
GASTEIGER

@<TRIPOS>ATOM
      1  N1         6.3230   -0.5880   -2.5380 N.pl3   1  UNL1       -0.3543
      2  C1         5.9620    0.2500   -1.4670 C.ar    1  UNL1        0.0829
      3  C2         6.9110    1.0890   -0.8670 C.ar    1  UNL1        0.1458
      4  F1         8.1740    1.0780   -1.3480 F       1  UNL1       -0.2035
      5  C3         6.5680    1.9060    0.1880 C.ar    1  UNL1       -0.0245
      6  C4         5.2750    1.9070    0.6690 C.ar    1  UNL1       -0.0571
      7  C5         4.3620    1.0760    0.0630 C.ar    1  UNL1       -0.0374
      8  C6         4.6620    0.2460   -0.9890 C.ar    1  UNL1        0.0714
      9  N2         3.7140   -0.5960   -1.6250 N.pl3   1  UNL1       -0.2144
     10  S1         2.9200   -1.8960   -0.8510 S.O2    1  UNL1        0.0724
     11  O1         1.9690   -2.5590   -1.8280 O.2     1  UNL1       -0.1500
     12  O2         3.9140   -2.9310   -0.3330 O.2     1  UNL1       -0.1500
     13  C7         1.9440   -1.4230    0.5130 C.ar    1  UNL1        0.1092
     14  C8         2.6070   -1.3380    1.7350 C.ar    1  UNL1       -0.0350
     15  C9         1.9490   -0.9860    2.8890 C.ar    1  UNL1       -0.0592
     16  C10        0.6090   -0.7170    2.8220 C.ar    1  UNL1       -0.0495
     17  C11       -0.0860   -0.7910    1.6270 C.ar    1  UNL1        0.0400
     18  C12       -1.5060   -0.5000    1.6320 C.2     1  UNL1        0.2602
     19  O3        -2.0770   -0.3190    2.7360 O.2     1  UNL1       -0.2687
     20  N3        -2.2970   -0.4060    0.4630 N.am    1  UNL1       -0.2301
     21  N4        -3.6810   -0.1150    0.6080 N.am    1  UNL1       -0.2300
     22  C13       -4.4890    0.1720   -0.5210 C.2     1  UNL1        0.2629
     23  O4        -3.8950    0.1480   -1.6260 O.2     1  UNL1       -0.2686
     24  C14       -5.9050    0.4800   -0.4990 C.ar    1  UNL1        0.0733
     25  C15       -6.5620    0.7530   -1.7090 C.ar    1  UNL1       -0.0468
     26  C16       -7.8970    1.0510   -1.7800 C.ar    1  UNL1       -0.0609
     27  C17       -8.6780    1.1000   -0.6470 C.ar    1  UNL1       -0.0590
     28  C18       -8.0700    0.8390    0.5590 C.ar    1  UNL1       -0.0257
     29  C19       -6.7040    0.5350    0.6130 C.ar    1  UNL1        0.1355
     30  F2        -6.1860    0.2940    1.8310 F       1  UNL1       -0.2047
     31  C20        0.6160   -1.1520    0.4730 C.ar    1  UNL1       -0.0229
     32 H           7.2475   -0.5838   -2.8764 H       1  UNL1        0.1425
     33 H           5.6511   -1.1786   -2.9490 H       1  UNL1        0.1425
     34 H           7.2789    2.5177    0.6188 H       1  UNL1        0.0647
     35 H           5.0015    2.5123    1.4588 H       1  UNL1        0.0619
     36 H           3.3938    1.0762    0.4201 H       1  UNL1        0.0637
     37 H           3.5005   -0.4207   -2.5699 H       1  UNL1        0.1737
     38 H           3.6174   -1.5445    1.7748 H       1  UNL1        0.0637
     39 H           2.4545   -0.9258    3.7867 H       1  UNL1        0.0618
     40 H           0.1046   -0.4527    3.6826 H       1  UNL1        0.0625
     41 H          -1.8994   -0.5386   -0.4278 H       1  UNL1        0.1731
     42 H          -4.0844   -0.1128    1.5060 H       1  UNL1        0.1731
     43 H          -6.0150    0.7281   -2.5838 H       1  UNL1        0.0626
     44 H          -8.3253    1.2423   -2.6993 H       1  UNL1        0.0618
     45 H          -9.6838    1.3246   -0.7007 H       1  UNL1        0.0618
     46 H          -8.6239    0.8674    1.4293 H       1  UNL1        0.0646
     47 H           0.1138   -1.2134   -0.4265 H       1  UNL1        0.0645
@<TRIPOS>BOND
     1     1     2    1
     2     2     3   ar
     3     2     8   ar
     4     3     4    1
     5     3     5   ar
     6     5     6   ar
     7     6     7   ar
     8     7     8   ar
     9     8     9    1
    10     9    10    1
    11    10    11    2
    12    10    12    2
    13    10    13    1
    14    13    14   ar
    15    13    31   ar
    16    14    15   ar
    17    15    16   ar
    18    16    17   ar
    19    17    18    1
    20    17    31   ar
    21    18    19    2
    22    18    20   am
    23    20    21    1
    24    21    22   am
    25    22    23    2
    26    22    24    1
    27    24    25   ar
    28    24    29   ar
    29    25    26   ar
    30    26    27   ar
    31    27    28   ar
    32    28    29   ar
    33    29    30    1
    34     1    32    1
    35     1    33    1
    36     5    34    1
    37     6    35    1
    38     7    36    1
    39     9    37    1
    40    14    38    1
    41    15    39    1
    42    16    40    1
    43    20    41    1
    44    21    42    1
    45    25    43    1
    46    26    44    1
    47    27    45    1
    48    28    46    1
    49    31    47    1
@<TRIPOS>MOLECULE
../data/bude_mols_rdkit_confs2/molecule_88.pdb
 47 49 0 0 0
SMALL
GASTEIGER

@<TRIPOS>ATOM
      1  N1         6.7420    0.6230    1.7110 N.pl3   1  UNL1       -0.3543
      2  C1         6.4730   -0.0290    0.4650 C.ar    1  UNL1        0.0829
      3  C2         7.2170   -1.1280    0.0700 C.ar    1  UNL1        0.1458
      4  F1         8.2170   -1.6270    0.8510 F       1  UNL1       -0.2035
      5  C3         6.9560   -1.7550   -1.1450 C.ar    1  UNL1       -0.0245
      6  C4         5.9400   -1.2320   -1.9140 C.ar    1  UNL1       -0.0571
      7  C5         5.2010   -0.1390   -1.5190 C.ar    1  UNL1       -0.0374
      8  C6         5.4570    0.4880   -0.3090 C.ar    1  UNL1        0.0714
      9  N2         4.6970    1.6420    0.1100 N.pl3   1  UNL1       -0.2144
     10  S1         3.0510    1.7940   -0.3260 S.O2    1  UNL1        0.0724
     11  O1         2.5510    3.1070    0.2450 O.2     1  UNL1       -0.1500
     12  O2         2.8490    1.9000   -1.8160 O.2     1  UNL1       -0.1500
     13  C7         2.0140    0.5610    0.2960 C.ar    1  UNL1        0.1092
     14  C8         2.4370   -0.7040    0.6200 C.ar    1  UNL1       -0.0350
     15  C9         1.5020   -1.6230    1.0710 C.ar    1  UNL1       -0.0592
     16  C10        0.1630   -1.3350    1.2120 C.ar    1  UNL1       -0.0495
     17  C11       -0.2690   -0.0470    0.8820 C.ar    1  UNL1        0.0400
     18  C12       -1.6600    0.3150    1.0000 C.2     1  UNL1        0.2602
     19  O3        -2.1030    0.8860    2.0420 O.2     1  UNL1       -0.2687
     20  N3        -2.5620    0.0380   -0.0520 N.am    1  UNL1       -0.2301
     21  N4        -3.9260    0.4030    0.0910 N.am    1  UNL1       -0.2300
     22  C13       -4.9540   -0.3750   -0.4550 C.2     1  UNL1        0.2629
     23  O4        -4.5640   -1.4270   -1.0820 O.2     1  UNL1       -0.2686
     24  C14       -6.3590   -0.1190   -0.3870 C.ar    1  UNL1        0.0733
     25  C15       -7.2570   -0.9030   -1.1230 C.ar    1  UNL1       -0.0468
     26  C16       -8.6150   -0.6910   -1.1130 C.ar    1  UNL1       -0.0609
     27  C17       -9.1150    0.3390   -0.3470 C.ar    1  UNL1       -0.0590
     28  C18       -8.2560    1.1180    0.3810 C.ar    1  UNL1       -0.0257
     29  C19       -6.8890    0.8950    0.3640 C.ar    1  UNL1        0.1355
     30  F2        -6.1320    1.7160    1.1250 F       1  UNL1       -0.2047
     31  C20        0.6650    0.8610    0.4350 C.ar    1  UNL1       -0.0229
     32 H           7.4589    0.2884    2.2970 H       1  UNL1        0.1425
     33 H           6.2101    1.4059    1.9818 H       1  UNL1        0.1425
     34 H           7.4996   -2.5753   -1.4558 H       1  UNL1        0.0647
     35 H           5.7244   -1.6759   -2.8204 H       1  UNL1        0.0619
     36 H           4.4491    0.2170   -2.1297 H       1  UNL1        0.0637
     37 H           5.1284    2.3440    0.6488 H       1  UNL1        0.1737
     38 H           3.4312   -0.9658    0.5297 H       1  UNL1        0.0637
     39 H           1.8265   -2.5721    1.3136 H       1  UNL1        0.0618
     40 H          -0.5015   -2.0482    1.5510 H       1  UNL1        0.0625
     41 H          -2.2479   -0.4029   -0.8743 H       1  UNL1        0.1731
     42 H          -4.1548    1.2227    0.5859 H       1  UNL1        0.1731
     43 H          -6.8823   -1.6737   -1.6980 H       1  UNL1        0.0626
     44 H          -9.2463   -1.2904   -1.6673 H       1  UNL1        0.0618
     45 H         -10.1303    0.5223   -0.3220 H       1  UNL1        0.0618
     46 H          -8.6351    1.8876    0.9546 H       1  UNL1        0.0646
     47 H           0.3466    1.8119    0.1911 H       1  UNL1        0.0645
@<TRIPOS>BOND
     1     1     2    1
     2     2     3   ar
     3     2     8   ar
     4     3     4    1
     5     3     5   ar
     6     5     6   ar
     7     6     7   ar
     8     7     8   ar
     9     8     9    1
    10     9    10    1
    11    10    11    2
    12    10    12    2
    13    10    13    1
    14    13    14   ar
    15    13    31   ar
    16    14    15   ar
    17    15    16   ar
    18    16    17   ar
    19    17    18    1
    20    17    31   ar
    21    18    19    2
    22    18    20   am
    23    20    21    1
    24    21    22   am
    25    22    23    2
    26    22    24    1
    27    24    25   ar
    28    24    29   ar
    29    25    26   ar
    30    26    27   ar
    31    27    28   ar
    32    28    29   ar
    33    29    30    1
    34     1    32    1
    35     1    33    1
    36     5    34    1
    37     6    35    1
    38     7    36    1
    39     9    37    1
    40    14    38    1
    41    15    39    1
    42    16    40    1
    43    20    41    1
    44    21    42    1
    45    25    43    1
    46    26    44    1
    47    27    45    1
    48    28    46    1
    49    31    47    1
@<TRIPOS>MOLECULE
../data/bude_mols_rdkit_confs2/molecule_88.pdb
 47 49 0 0 0
SMALL
GASTEIGER

@<TRIPOS>ATOM
      1  N1        -4.0170   -1.3970    2.4610 N.pl3   1  UNL1       -0.3543
      2  C1        -4.8510   -0.6600    1.5420 C.ar    1  UNL1        0.0829
      3  C2        -5.8550    0.1610    1.9920 C.ar    1  UNL1        0.1458
      4  F1        -6.0640    0.2770    3.3410 F       1  UNL1       -0.2035
      5  C3        -6.6370    0.8540    1.0890 C.ar    1  UNL1       -0.0245
      6  C4        -6.3890    0.7050   -0.2580 C.ar    1  UNL1       -0.0571
      7  C5        -5.3880   -0.1130   -0.7260 C.ar    1  UNL1       -0.0374
      8  C6        -4.6170   -0.7970    0.1870 C.ar    1  UNL1        0.0714
      9  N2        -3.5740   -1.6620   -0.2530 N.pl3   1  UNL1       -0.2144
     10  S1        -2.8120   -1.5010   -1.7650 S.O2    1  UNL1        0.0724
     11  O1        -1.7220   -2.5530   -1.9230 O.2     1  UNL1       -0.1500
     12  O2        -3.7400   -1.6610   -2.9360 O.2     1  UNL1       -0.1500
     13  C7        -1.9920    0.0620   -1.9070 C.ar    1  UNL1        0.1092
     14  C8        -2.5720    1.1650   -2.4610 C.ar    1  UNL1       -0.0350
     15  C9        -1.8590    2.3390   -2.5200 C.ar    1  UNL1       -0.0592
     16  C10       -0.5660    2.4050   -2.0230 C.ar    1  UNL1       -0.0495
     17  C11        0.0530    1.3140   -1.4570 C.ar    1  UNL1        0.0400
     18  C12        1.4100    1.4290   -0.9450 C.2     1  UNL1        0.2602
     19  O3         1.9690    2.5460   -0.9810 O.2     1  UNL1       -0.2687
     20  N3         2.1470    0.3570   -0.4070 N.am    1  UNL1       -0.2301
     21  N4         3.4700    0.5040    0.0850 N.am    1  UNL1       -0.2300
     22  C13        4.2000   -0.5820    0.6070 C.2     1  UNL1        0.2629
     23  O4         3.5460   -1.6890    0.5870 O.2     1  UNL1       -0.2686
     24  C14        5.5480   -0.5440    1.1320 C.ar    1  UNL1        0.0733
     25  C15        6.0790   -1.7090    1.6560 C.ar    1  UNL1       -0.0468
     26  C16        7.3480   -1.7850    2.1850 C.ar    1  UNL1       -0.0609
     27  C17        8.1220   -0.6380    2.1890 C.ar    1  UNL1       -0.0590
     28  C18        7.5970    0.5220    1.6690 C.ar    1  UNL1       -0.0257
     29  C19        6.3190    0.5810    1.1410 C.ar    1  UNL1        0.1355
     30  F2         5.9200    1.7740    0.6580 F       1  UNL1       -0.2047
     31  C20       -0.6870    0.1520   -1.4120 C.ar    1  UNL1       -0.0229
     32 H          -4.1633   -1.3167    3.4313 H       1  UNL1        0.1425
     33 H          -3.3019   -1.9800    2.1176 H       1  UNL1        0.1425
     34 H          -7.3944    1.4731    1.4177 H       1  UNL1        0.0647
     35 H          -6.9713    1.2222   -0.9351 H       1  UNL1        0.0619
     36 H          -5.2182   -0.2122   -1.7391 H       1  UNL1        0.0637
     37 H          -3.2808   -2.3864    0.3458 H       1  UNL1        0.1737
     38 H          -3.5342    1.1190   -2.8313 H       1  UNL1        0.0637
     39 H          -2.2898    3.1786   -2.9378 H       1  UNL1        0.0618
     40 H          -0.0529    3.2986   -2.0793 H       1  UNL1        0.0625
     41 H           1.7267   -0.5325   -0.3705 H       1  UNL1        0.1731
     42 H           3.8912    1.3935    0.0608 H       1  UNL1        0.1731
     43 H           5.4967   -2.5610    1.6501 H       1  UNL1        0.0626
     44 H           7.7114   -2.6719    2.5675 H       1  UNL1        0.0618
     45 H           9.0785   -0.6527    2.5762 H       1  UNL1        0.0618
     46 H           8.1752    1.3768    1.6726 H       1  UNL1        0.0646
     47 H          -0.2590   -0.6891   -0.9944 H       1  UNL1        0.0645
@<TRIPOS>BOND
     1     1     2    1
     2     2     3   ar
     3     2     8   ar
     4     3     4    1
     5     3     5   ar
     6     5     6   ar
     7     6     7   ar
     8     7     8   ar
     9     8     9    1
    10     9    10    1
    11    10    11    2
    12    10    12    2
    13    10    13    1
    14    13    14   ar
    15    13    31   ar
    16    14    15   ar
    17    15    16   ar
    18    16    17   ar
    19    17    18    1
    20    17    31   ar
    21    18    19    2
    22    18    20   am
    23    20    21    1
    24    21    22   am
    25    22    23    2
    26    22    24    1
    27    24    25   ar
    28    24    29   ar
    29    25    26   ar
    30    26    27   ar
    31    27    28   ar
    32    28    29   ar
    33    29    30    1
    34     1    32    1
    35     1    33    1
    36     5    34    1
    37     6    35    1
    38     7    36    1
    39     9    37    1
    40    14    38    1
    41    15    39    1
    42    16    40    1
    43    20    41    1
    44    21    42    1
    45    25    43    1
    46    26    44    1
    47    27    45    1
    48    28    46    1
    49    31    47    1
@<TRIPOS>MOLECULE
../data/bude_mols_rdkit_confs2/molecule_88.pdb
 47 49 0 0 0
SMALL
GASTEIGER

@<TRIPOS>ATOM
      1  N1        -7.0080   -1.2770    0.8400 N.pl3   1  UNL1       -0.3543
      2  C1        -6.4510   -0.1950    0.1020 C.ar    1  UNL1        0.0829
      3  C2        -7.2130    0.9520   -0.0410 C.ar    1  UNL1        0.1458
      4  F1        -8.4330    0.9870    0.5300 F       1  UNL1       -0.2035
      5  C3        -6.7210    2.0270   -0.7440 C.ar    1  UNL1       -0.0245
      6  C4        -5.4810    1.9550   -1.2970 C.ar    1  UNL1       -0.0571
      7  C5        -4.7170    0.8130   -1.1550 C.ar    1  UNL1       -0.0374
      8  C6        -5.2040   -0.2690   -0.4540 C.ar    1  UNL1        0.0714
      9  N2        -4.3960   -1.4290   -0.3510 N.pl3   1  UNL1       -0.2144
     10  S1        -2.7240   -1.4960   -0.6390 S.O2    1  UNL1        0.0724
     11  O1        -2.2390   -2.9040   -0.3620 O.2     1  UNL1       -0.1500
     12  O2        -2.3600   -1.2060   -2.0690 O.2     1  UNL1       -0.1500
     13  C7        -1.8420   -0.4710    0.4860 C.ar    1  UNL1        0.1092
     14  C8        -2.4880    0.2890    1.4290 C.ar    1  UNL1       -0.0350
     15  C9        -1.7190    1.0620    2.3080 C.ar    1  UNL1       -0.0592
     16  C10       -0.3520    1.0850    2.2560 C.ar    1  UNL1       -0.0495
     17  C11        0.3230    0.3140    1.2990 C.ar    1  UNL1        0.0400
     18  C12        1.7680    0.2900    1.2520 C.2     1  UNL1        0.2602
     19  O3         2.4030    0.5510    2.3090 O.2     1  UNL1       -0.2687
     20  N3         2.4730   -0.0180    0.0770 N.am    1  UNL1       -0.2301
     21  N4         3.8680   -0.0440    0.1330 N.am    1  UNL1       -0.2300
     22  C13        4.6800   -0.1520   -1.0590 C.2     1  UNL1        0.2629
     23  O4         4.0890   -0.1860   -2.1760 O.2     1  UNL1       -0.2686
     24  C14        6.1200   -0.2210   -0.9310 C.ar    1  UNL1        0.0733
     25  C15        6.9300    0.1870   -1.9710 C.ar    1  UNL1       -0.0468
     26  C16        8.3130    0.1650   -1.8590 C.ar    1  UNL1       -0.0609
     27  C17        8.8720   -0.2750   -0.6850 C.ar    1  UNL1       -0.0590
     28  C18        8.1000   -0.6870    0.3620 C.ar    1  UNL1       -0.0257
     29  C19        6.7130   -0.6530    0.2180 C.ar    1  UNL1        0.1355
     30  F2         6.0280   -1.1230    1.2970 F       1  UNL1       -0.2047
     31  C20       -0.4610   -0.4530    0.4270 C.ar    1  UNL1       -0.0229
     32 H          -7.9086   -1.1954    1.2292 H       1  UNL1        0.1425
     33 H          -6.4927   -2.1070    0.9613 H       1  UNL1        0.1425
     34 H          -7.2889    2.8820   -0.8509 H       1  UNL1        0.0647
     35 H          -5.1082    2.7587   -1.8262 H       1  UNL1        0.0619
     36 H          -3.7759    0.7698   -1.5763 H       1  UNL1        0.0637
     37 H          -4.8421   -2.2670   -0.0903 H       1  UNL1        0.1737
     38 H          -3.5183    0.2908    1.4890 H       1  UNL1        0.0637
     39 H          -2.2001    1.6340    3.0196 H       1  UNL1        0.0618
     40 H           0.1811    1.6685    2.9196 H       1  UNL1        0.0625
     41 H           1.9968   -0.2103   -0.7629 H       1  UNL1        0.1731
     42 H           4.3120    0.0129    1.0099 H       1  UNL1        0.1731
     43 H           6.4988    0.5149   -2.8494 H       1  UNL1        0.0626
     44 H           8.9094    0.4733   -2.6428 H       1  UNL1        0.0618
     45 H           9.8996   -0.2946   -0.5921 H       1  UNL1        0.0618
     46 H           8.5321   -1.0160    1.2396 H       1  UNL1        0.0646
     47 H           0.0116   -1.0277   -0.2881 H       1  UNL1        0.0645
@<TRIPOS>BOND
     1     1     2    1
     2     2     3   ar
     3     2     8   ar
     4     3     4    1
     5     3     5   ar
     6     5     6   ar
     7     6     7   ar
     8     7     8   ar
     9     8     9    1
    10     9    10    1
    11    10    11    2
    12    10    12    2
    13    10    13    1
    14    13    14   ar
    15    13    31   ar
    16    14    15   ar
    17    15    16   ar
    18    16    17   ar
    19    17    18    1
    20    17    31   ar
    21    18    19    2
    22    18    20   am
    23    20    21    1
    24    21    22   am
    25    22    23    2
    26    22    24    1
    27    24    25   ar
    28    24    29   ar
    29    25    26   ar
    30    26    27   ar
    31    27    28   ar
    32    28    29   ar
    33    29    30    1
    34     1    32    1
    35     1    33    1
    36     5    34    1
    37     6    35    1
    38     7    36    1
    39     9    37    1
    40    14    38    1
    41    15    39    1
    42    16    40    1
    43    20    41    1
    44    21    42    1
    45    25    43    1
    46    26    44    1
    47    27    45    1
    48    28    46    1
    49    31    47    1
