@<TRIPOS>MOLECULE
../data/bude_mols_rdkit_confs2/molecule_15.pdb
 40 42 0 0 0
SMALL
GASTEIGER

@<TRIPOS>ATOM
      1  O1        -2.4010    2.5950   -0.2670 O.2     1  UNL1       -0.2698
      2  C1        -2.0790    1.3930   -0.4480 C.2     1  UNL1        0.2494
      3  N1        -2.9900    0.3970   -0.0460 N.am    1  UNL1       -0.2664
      4  C2        -4.2530    0.5690    0.5520 C.ar    1  UNL1        0.1251
      5  C3        -4.8790    1.7230    0.8750 C.ar    1  UNL1       -0.0215
      6  C4        -6.1440    1.7320    1.4690 C.ar    1  UNL1       -0.0571
      7  C5        -6.7820    0.5550    1.7380 C.ar    1  UNL1       -0.0435
      8  C6        -6.1350   -0.6110    1.4050 C.ar    1  UNL1        0.0297
      9  N2        -4.9400   -0.5770    0.8440 N.ar    1  UNL1       -0.2401
     10  C7        -0.7750    1.1500   -1.0660 C.ar    1  UNL1        0.0389
     11  C8        -0.0630    2.1570   -1.6800 C.ar    1  UNL1       -0.0495
     12  C9         1.1590    1.8650   -2.2360 C.ar    1  UNL1       -0.0592
     13  C10        1.6860    0.5720   -2.1900 C.ar    1  UNL1       -0.0350
     14  C11        0.9840   -0.4230   -1.5840 C.ar    1  UNL1        0.1092
     15  S1         1.5910   -2.0520   -1.4890 S.O2    1  UNL1        0.0724
     16  O2         2.4560   -2.3740   -2.6780 O.2     1  UNL1       -0.1500
     17  O3         0.4200   -3.0240   -1.5670 O.2     1  UNL1       -0.1500
     18  N3         2.4220   -2.3530   -0.0270 N.pl3   1  UNL1       -0.2135
     19  C12        3.5900   -1.6180    0.2950 C.ar    1  UNL1        0.0831
     20  C13        4.4010   -1.0240   -0.6430 C.ar    1  UNL1       -0.0365
     21  C14        5.5340   -0.3260   -0.2950 C.ar    1  UNL1       -0.0598
     22  C15        5.8550   -0.2280    1.0320 C.ar    1  UNL1       -0.0589
     23  C16        5.0540   -0.8170    1.9860 C.ar    1  UNL1       -0.0246
     24  C17        3.9180   -1.5170    1.6460 C.ar    1  UNL1        0.1456
     25  F1         3.1410   -2.0930    2.6130 F       1  UNL1       -0.2035
     26  C18       -0.2490   -0.1170   -1.0260 C.ar    1  UNL1       -0.0230
     27 H          -2.7093   -0.5336   -0.2023 H       1  UNL1        0.1566
     28 H          -4.4103    2.6210    0.6777 H       1  UNL1        0.0652
     29 H          -6.5964    2.6291    1.7046 H       1  UNL1        0.0619
     30 H          -7.7165    0.5415    2.1757 H       1  UNL1        0.0633
     31 H          -6.5863   -1.5195    1.5947 H       1  UNL1        0.0830
     32 H          -0.4418    3.1161   -1.7217 H       1  UNL1        0.0625
     33 H           1.6979    2.6151   -2.6964 H       1  UNL1        0.0618
     34 H           2.6052    0.3724   -2.6145 H       1  UNL1        0.0637
     35 H           2.0881   -3.0398    0.5943 H       1  UNL1        0.1738
     36 H           4.1514   -1.1045   -1.6411 H       1  UNL1        0.0637
     37 H           6.1273    0.1129   -1.0164 H       1  UNL1        0.0618
     38 H           6.7006    0.2892    1.3192 H       1  UNL1        0.0618
     39 H           5.3123   -0.7313    2.9815 H       1  UNL1        0.0647
     40 H          -0.7883   -0.8669   -0.5657 H       1  UNL1        0.0645
@<TRIPOS>BOND
     1     1     2    2
     2     2     3   am
     3     2    10    1
     4     3     4    1
     5     4     5   ar
     6     4     9   ar
     7     5     6   ar
     8     6     7   ar
     9     7     8   ar
    10     8     9   ar
    11    10    11   ar
    12    10    26   ar
    13    11    12   ar
    14    12    13   ar
    15    13    14   ar
    16    14    15    1
    17    14    26   ar
    18    15    16    2
    19    15    17    2
    20    15    18    1
    21    18    19    1
    22    19    20   ar
    23    19    24   ar
    24    20    21   ar
    25    21    22   ar
    26    22    23   ar
    27    23    24   ar
    28    24    25    1
    29     3    27    1
    30     5    28    1
    31     6    29    1
    32     7    30    1
    33     8    31    1
    34    11    32    1
    35    12    33    1
    36    13    34    1
    37    18    35    1
    38    20    36    1
    39    21    37    1
    40    22    38    1
    41    23    39    1
    42    26    40    1
@<TRIPOS>MOLECULE
../data/bude_mols_rdkit_confs2/molecule_15.pdb
 40 42 0 0 0
SMALL
GASTEIGER

@<TRIPOS>ATOM
      1  O1         2.5550    0.9560   -1.0600 O.2     1  UNL1       -0.2698
      2  C1         2.2410    0.5320    0.1040 C.2     1  UNL1        0.2494
      3  N1         3.2700   -0.1490    0.7920 N.am    1  UNL1       -0.2664
      4  C2         4.5670   -0.3520    0.2320 C.ar    1  UNL1        0.1251
      5  C3         5.4990   -1.0290    0.9840 C.ar    1  UNL1       -0.0215
      6  C4         6.7690   -1.2700    0.5270 C.ar    1  UNL1       -0.0571
      7  C5         7.0970   -0.8040   -0.7400 C.ar    1  UNL1       -0.0435
      8  C6         6.1290   -0.1300   -1.4590 C.ar    1  UNL1        0.0297
      9  N2         4.8900    0.0970   -0.9950 N.ar    1  UNL1       -0.2401
     10  C7         0.9210    0.7470    0.6570 C.ar    1  UNL1        0.0389
     11  C8         0.5650    0.3000    1.9030 C.ar    1  UNL1       -0.0495
     12  C9        -0.6870    0.4930    2.4500 C.ar    1  UNL1       -0.0592
     13  C10       -1.6160    1.1740    1.6890 C.ar    1  UNL1       -0.0350
     14  C11       -1.3360    1.6540    0.4300 C.ar    1  UNL1        0.1092
     15  S1        -2.5140    2.5110   -0.5420 S.O2    1  UNL1        0.0724
     16  O2        -1.7610    3.5380   -1.3380 O.2     1  UNL1       -0.1500
     17  O3        -3.5000    3.2470    0.3260 O.2     1  UNL1       -0.1500
     18  N3        -3.2930    1.3970   -1.5850 N.pl3   1  UNL1       -0.2135
     19  C12       -4.0700    0.2940   -1.1840 C.ar    1  UNL1        0.0831
     20  C13       -4.6530    0.2670    0.0580 C.ar    1  UNL1       -0.0365
     21  C14       -5.4380   -0.8160    0.4750 C.ar    1  UNL1       -0.0598
     22  C15       -5.6450   -1.8870   -0.3580 C.ar    1  UNL1       -0.0589
     23  C16       -5.0630   -1.8640   -1.6000 C.ar    1  UNL1       -0.0246
     24  C17       -4.2950   -0.7950   -1.9970 C.ar    1  UNL1        0.1456
     25  F1        -3.7060   -0.7540   -3.2340 F       1  UNL1       -0.2035
     26  C18       -0.0600    1.4280   -0.0640 C.ar    1  UNL1       -0.0230
     27 H           3.0850   -0.4975    1.6940 H       1  UNL1        0.1566
     28 H           5.2337   -1.3664    1.9225 H       1  UNL1        0.0652
     29 H           7.4568   -1.7794    1.1036 H       1  UNL1        0.0619
     30 H           8.0386   -0.9573   -1.1335 H       1  UNL1        0.0633
     31 H           6.3706    0.2166   -2.4006 H       1  UNL1        0.0830
     32 H           1.2698   -0.2071    2.4608 H       1  UNL1        0.0625
     33 H          -0.9200    0.1417    3.3920 H       1  UNL1        0.0618
     34 H          -2.5583    1.3294    2.0800 H       1  UNL1        0.0637
     35 H          -3.1875    1.5416   -2.5531 H       1  UNL1        0.1738
     36 H          -4.5099    1.0626    0.6995 H       1  UNL1        0.0637
     37 H          -5.8636   -0.8084    1.4151 H       1  UNL1        0.0618
     38 H          -6.2228   -2.6878   -0.0581 H       1  UNL1        0.0618
     39 H          -5.2033   -2.6583   -2.2438 H       1  UNL1        0.0647
     40 H           0.1739    1.7789   -1.0059 H       1  UNL1        0.0645
@<TRIPOS>BOND
     1     1     2    2
     2     2     3   am
     3     2    10    1
     4     3     4    1
     5     4     5   ar
     6     4     9   ar
     7     5     6   ar
     8     6     7   ar
     9     7     8   ar
    10     8     9   ar
    11    10    11   ar
    12    10    26   ar
    13    11    12   ar
    14    12    13   ar
    15    13    14   ar
    16    14    15    1
    17    14    26   ar
    18    15    16    2
    19    15    17    2
    20    15    18    1
    21    18    19    1
    22    19    20   ar
    23    19    24   ar
    24    20    21   ar
    25    21    22   ar
    26    22    23   ar
    27    23    24   ar
    28    24    25    1
    29     3    27    1
    30     5    28    1
    31     6    29    1
    32     7    30    1
    33     8    31    1
    34    11    32    1
    35    12    33    1
    36    13    34    1
    37    18    35    1
    38    20    36    1
    39    21    37    1
    40    22    38    1
    41    23    39    1
    42    26    40    1
@<TRIPOS>MOLECULE
../data/bude_mols_rdkit_confs2/molecule_15.pdb
 40 42 0 0 0
SMALL
GASTEIGER

@<TRIPOS>ATOM
      1  O1         3.0500   -1.3010   -1.5110 O.2     1  UNL1       -0.2698
      2  C1         2.3440   -0.8070   -0.5840 C.2     1  UNL1        0.2494
      3  N1         2.8960    0.2740    0.1540 N.am    1  UNL1       -0.2664
      4  C2         4.2180    0.7360   -0.2000 C.ar    1  UNL1        0.1251
      5  C3         4.7810    1.7820    0.4970 C.ar    1  UNL1       -0.0215
      6  C4         6.0440    2.2390    0.1750 C.ar    1  UNL1       -0.0571
      7  C5         6.7240    1.6200   -0.8610 C.ar    1  UNL1       -0.0435
      8  C6         6.1170    0.5780   -1.5260 C.ar    1  UNL1        0.0297
      9  N2         4.9040    0.1590   -1.1970 N.ar    1  UNL1       -0.2401
     10  C7         1.0170   -1.3310   -0.2900 C.ar    1  UNL1        0.0389
     11  C8         0.5490   -2.3830   -1.0540 C.ar    1  UNL1       -0.0495
     12  C9        -0.7010   -2.8950   -0.7950 C.ar    1  UNL1       -0.0592
     13  C10       -1.4900   -2.3700    0.2190 C.ar    1  UNL1       -0.0350
     14  C11       -1.0460   -1.3230    0.9920 C.ar    1  UNL1        0.1092
     15  S1        -1.9780   -0.6020    2.2790 S.O2    1  UNL1        0.0724
     16  O2        -1.0570   -0.1460    3.3810 O.2     1  UNL1       -0.1500
     17  O3        -2.9220   -1.6000    2.9140 O.2     1  UNL1       -0.1500
     18  N3        -2.8380    0.7620    1.6470 N.pl3   1  UNL1       -0.2135
     19  C12       -3.8060    0.6880    0.6290 C.ar    1  UNL1        0.0831
     20  C13       -4.4660   -0.5070    0.4420 C.ar    1  UNL1       -0.0365
     21  C14       -5.4180   -0.5710   -0.5470 C.ar    1  UNL1       -0.0598
     22  C15       -5.6970    0.5330   -1.3210 C.ar    1  UNL1       -0.0589
     23  C16       -5.0320    1.7260   -1.1270 C.ar    1  UNL1       -0.0246
     24  C17       -4.0780    1.8010   -0.1420 C.ar    1  UNL1        0.1456
     25  F1        -3.3880    2.9610    0.0940 F       1  UNL1       -0.2035
     26  C18        0.2280   -0.8280    0.7010 C.ar    1  UNL1       -0.0230
     27 H           2.3916    0.6965    0.8863 H       1  UNL1        0.1566
     28 H           4.2554    2.2275    1.2653 H       1  UNL1        0.0652
     29 H           6.4707    3.0226    0.6936 H       1  UNL1        0.0619
     30 H           7.6694    1.9344   -1.1299 H       1  UNL1        0.0633
     31 H           6.6187    0.1127   -2.2986 H       1  UNL1        0.0830
     32 H           1.1299   -2.7794   -1.8092 H       1  UNL1        0.0625
     33 H          -1.0571   -3.6801   -1.3623 H       1  UNL1        0.0618
     34 H          -2.4241   -2.7715    0.3955 H       1  UNL1        0.0637
     35 H          -2.6359    1.6481    2.0254 H       1  UNL1        0.1738
     36 H          -4.2518   -1.3295    1.0273 H       1  UNL1        0.0637
     37 H          -5.9277   -1.4533   -0.7108 H       1  UNL1        0.0618
     38 H          -6.4157    0.4669   -2.0587 H       1  UNL1        0.0618
     39 H          -5.2478    2.5482   -1.7122 H       1  UNL1        0.0647
     40 H           0.5894   -0.0426    1.2645 H       1  UNL1        0.0645
@<TRIPOS>BOND
     1     1     2    2
     2     2     3   am
     3     2    10    1
     4     3     4    1
     5     4     5   ar
     6     4     9   ar
     7     5     6   ar
     8     6     7   ar
     9     7     8   ar
    10     8     9   ar
    11    10    11   ar
    12    10    26   ar
    13    11    12   ar
    14    12    13   ar
    15    13    14   ar
    16    14    15    1
    17    14    26   ar
    18    15    16    2
    19    15    17    2
    20    15    18    1
    21    18    19    1
    22    19    20   ar
    23    19    24   ar
    24    20    21   ar
    25    21    22   ar
    26    22    23   ar
    27    23    24   ar
    28    24    25    1
    29     3    27    1
    30     5    28    1
    31     6    29    1
    32     7    30    1
    33     8    31    1
    34    11    32    1
    35    12    33    1
    36    13    34    1
    37    18    35    1
    38    20    36    1
    39    21    37    1
    40    22    38    1
    41    23    39    1
    42    26    40    1
@<TRIPOS>MOLECULE
../data/bude_mols_rdkit_confs2/molecule_15.pdb
 40 42 0 0 0
SMALL
GASTEIGER

@<TRIPOS>ATOM
      1  O1        -3.0450   -2.0350   -0.1610 O.2     1  UNL1       -0.2698
      2  C1        -2.3510   -1.0260    0.1710 C.2     1  UNL1        0.2494
      3  N1        -2.9490    0.2400   -0.1430 N.am    1  UNL1       -0.2664
      4  C2        -4.2200    0.3170   -0.7760 C.ar    1  UNL1        0.1251
      5  C3        -4.7360    1.5650   -1.0480 C.ar    1  UNL1       -0.0215
      6  C4        -5.9510    1.7490   -1.6550 C.ar    1  UNL1       -0.0571
      7  C5        -6.6630    0.6190   -1.9940 C.ar    1  UNL1       -0.0435
      8  C6        -6.1110   -0.6080   -1.7040 C.ar    1  UNL1        0.0297
      9  N2        -4.9210   -0.7840   -1.1100 N.ar    1  UNL1       -0.2401
     10  C7        -1.0610   -1.1630    0.8140 C.ar    1  UNL1        0.0389
     11  C8        -0.5920   -2.4330    1.0640 C.ar    1  UNL1       -0.0495
     12  C9         0.6290   -2.6190    1.6740 C.ar    1  UNL1       -0.0592
     13  C10        1.4050   -1.5410    2.0450 C.ar    1  UNL1       -0.0350
     14  C11        0.9650   -0.2610    1.8080 C.ar    1  UNL1        0.1092
     15  S1         1.8590    1.1830    2.2250 S.O2    1  UNL1        0.0724
     16  O2         0.8440    2.2130    2.6400 O.2     1  UNL1       -0.1500
     17  O3         2.8100    0.9030    3.3560 O.2     1  UNL1       -0.1500
     18  N3         2.7700    1.7000    0.8770 N.pl3   1  UNL1       -0.2135
     19  C12        3.7950    0.9710    0.2370 C.ar    1  UNL1        0.0831
     20  C13        4.4410   -0.0500    0.8960 C.ar    1  UNL1       -0.0365
     21  C14        5.4650   -0.7670    0.2660 C.ar    1  UNL1       -0.0598
     22  C15        5.8570   -0.4770   -1.0230 C.ar    1  UNL1       -0.0589
     23  C16        5.2040    0.5530   -1.6810 C.ar    1  UNL1       -0.0246
     24  C17        4.1980    1.2520   -1.0510 C.ar    1  UNL1        0.1456
     25  F1         3.5550    2.2610   -1.6910 F       1  UNL1       -0.2035
     26  C18       -0.2730   -0.1150    1.1910 C.ar    1  UNL1       -0.0230
     27 H          -2.4708    1.0701    0.0839 H       1  UNL1        0.1566
     28 H          -4.1846    2.3963   -0.7836 H       1  UNL1        0.0652
     29 H          -6.3172    2.6940   -1.8499 H       1  UNL1        0.0619
     30 H          -7.5847    0.6907   -2.4527 H       1  UNL1        0.0633
     31 H          -6.6493   -1.4502   -1.9610 H       1  UNL1        0.0830
     32 H          -1.1591   -3.2513    0.7925 H       1  UNL1        0.0625
     33 H           0.9673   -3.5769    1.8556 H       1  UNL1        0.0618
     34 H           2.3176   -1.6959    2.5013 H       1  UNL1        0.0637
     35 H           2.5607    2.5900    0.5119 H       1  UNL1        0.1738
     36 H           4.1683   -0.2889    1.8622 H       1  UNL1        0.0637
     37 H           5.9365   -1.5291    0.7778 H       1  UNL1        0.0618
     38 H           6.6120   -1.0094   -1.4830 H       1  UNL1        0.0618
     39 H           5.4725    0.7974   -2.6470 H       1  UNL1        0.0647
     40 H          -0.6152    0.8412    1.0078 H       1  UNL1        0.0645
@<TRIPOS>BOND
     1     1     2    2
     2     2     3   am
     3     2    10    1
     4     3     4    1
     5     4     5   ar
     6     4     9   ar
     7     5     6   ar
     8     6     7   ar
     9     7     8   ar
    10     8     9   ar
    11    10    11   ar
    12    10    26   ar
    13    11    12   ar
    14    12    13   ar
    15    13    14   ar
    16    14    15    1
    17    14    26   ar
    18    15    16    2
    19    15    17    2
    20    15    18    1
    21    18    19    1
    22    19    20   ar
    23    19    24   ar
    24    20    21   ar
    25    21    22   ar
    26    22    23   ar
    27    23    24   ar
    28    24    25    1
    29     3    27    1
    30     5    28    1
    31     6    29    1
    32     7    30    1
    33     8    31    1
    34    11    32    1
    35    12    33    1
    36    13    34    1
    37    18    35    1
    38    20    36    1
    39    21    37    1
    40    22    38    1
    41    23    39    1
    42    26    40    1
@<TRIPOS>MOLECULE
../data/bude_mols_rdkit_confs2/molecule_15.pdb
 40 42 0 0 0
SMALL
GASTEIGER

@<TRIPOS>ATOM
      1  O1        -2.4960    2.0450   -1.0650 O.2     1  UNL1       -0.2698
      2  C1        -1.9630    1.1050   -0.3840 C.2     1  UNL1        0.2494
      3  N1        -2.2560   -0.2130   -0.7590 N.am    1  UNL1       -0.2664
      4  C2        -3.0820   -0.6510   -1.8170 C.ar    1  UNL1        0.1251
      5  C3        -3.7660    0.1310   -2.6970 C.ar    1  UNL1       -0.0215
      6  C4        -4.5610   -0.3920   -3.7140 C.ar    1  UNL1       -0.0571
      7  C5        -4.6390   -1.7610   -3.8120 C.ar    1  UNL1       -0.0435
      8  C6        -3.9520   -2.5650   -2.9300 C.ar    1  UNL1        0.0297
      9  N2        -3.2180   -1.9930   -1.9900 N.ar    1  UNL1       -0.2401
     10  C7        -1.1020    1.4950    0.7190 C.ar    1  UNL1        0.0389
     11  C8        -1.0660    2.8090    1.1220 C.ar    1  UNL1       -0.0495
     12  C9        -0.2490    3.2280    2.1740 C.ar    1  UNL1       -0.0592
     13  C10        0.5330    2.2930    2.8150 C.ar    1  UNL1       -0.0350
     14  C11        0.4910    0.9780    2.4050 C.ar    1  UNL1        0.1092
     15  S1         1.5200   -0.1420    3.2900 S.O2    1  UNL1        0.0724
     16  O2         0.8540   -1.4900    3.2110 O.2     1  UNL1       -0.1500
     17  O3         1.5880    0.2330    4.7440 O.2     1  UNL1       -0.1500
     18  N3         3.1060   -0.1400    2.6490 N.pl3   1  UNL1       -0.2135
     19  C12        3.3760   -0.5300    1.3120 C.ar    1  UNL1        0.0831
     20  C13        2.5730   -1.3710    0.5720 C.ar    1  UNL1       -0.0365
     21  C14        2.8960   -1.7260   -0.7350 C.ar    1  UNL1       -0.0598
     22  C15        4.0350   -1.2540   -1.3500 C.ar    1  UNL1       -0.0589
     23  C16        4.8450   -0.4140   -0.6200 C.ar    1  UNL1       -0.0246
     24  C17        4.5300   -0.0590    0.6710 C.ar    1  UNL1        0.1456
     25  F1         5.3250    0.7670    1.3890 F       1  UNL1       -0.2035
     26  C18       -0.3280    0.5590    1.3500 C.ar    1  UNL1       -0.0230
     27 H          -1.8344   -0.9199   -0.2188 H       1  UNL1        0.1566
     28 H          -3.6921    1.1564   -2.6065 H       1  UNL1        0.0652
     29 H          -5.0707    0.2231   -4.3673 H       1  UNL1        0.0619
     30 H          -5.2167   -2.1894   -4.5521 H       1  UNL1        0.0633
     31 H          -4.0087   -3.5930   -3.0010 H       1  UNL1        0.0830
     32 H          -1.6565    3.5017    0.6357 H       1  UNL1        0.0625
     33 H          -0.2315    4.2179    2.4652 H       1  UNL1        0.0618
     34 H           1.1456    2.5749    3.5962 H       1  UNL1        0.0637
     35 H           3.8536    0.1401    3.2251 H       1  UNL1        0.1738
     36 H           1.7110   -1.7469    0.9972 H       1  UNL1        0.0637
     37 H           2.2674   -2.3576   -1.2554 H       1  UNL1        0.0618
     38 H           4.2713   -1.5195   -2.3189 H       1  UNL1        0.0618
     39 H           5.7065   -0.0429   -1.0502 H       1  UNL1        0.0647
     40 H          -0.3477   -0.4299    1.0556 H       1  UNL1        0.0645
@<TRIPOS>BOND
     1     1     2    2
     2     2     3   am
     3     2    10    1
     4     3     4    1
     5     4     5   ar
     6     4     9   ar
     7     5     6   ar
     8     6     7   ar
     9     7     8   ar
    10     8     9   ar
    11    10    11   ar
    12    10    26   ar
    13    11    12   ar
    14    12    13   ar
    15    13    14   ar
    16    14    15    1
    17    14    26   ar
    18    15    16    2
    19    15    17    2
    20    15    18    1
    21    18    19    1
    22    19    20   ar
    23    19    24   ar
    24    20    21   ar
    25    21    22   ar
    26    22    23   ar
    27    23    24   ar
    28    24    25    1
    29     3    27    1
    30     5    28    1
    31     6    29    1
    32     7    30    1
    33     8    31    1
    34    11    32    1
    35    12    33    1
    36    13    34    1
    37    18    35    1
    38    20    36    1
    39    21    37    1
    40    22    38    1
    41    23    39    1
    42    26    40    1
@<TRIPOS>MOLECULE
../data/bude_mols_rdkit_confs2/molecule_15.pdb
 40 42 0 0 0
SMALL
GASTEIGER

@<TRIPOS>ATOM
      1  O1         2.3320    0.9820    1.0560 O.2     1  UNL1       -0.2698
      2  C1         2.2650   -0.0920    0.4050 C.2     1  UNL1        0.2494
      3  N1         3.4060   -0.5640   -0.2670 N.am    1  UNL1       -0.2664
      4  C2         4.6720    0.0390   -0.3080 C.ar    1  UNL1        0.1251
      5  C3         5.0100    1.1970    0.3050 C.ar    1  UNL1       -0.0215
      6  C4         6.3070    1.7390    0.2160 C.ar    1  UNL1       -0.0571
      7  C5         7.2680    1.1000   -0.5010 C.ar    1  UNL1       -0.0435
      8  C6         6.8990   -0.0850   -1.1210 C.ar    1  UNL1        0.0297
      9  N2         5.6660   -0.5790   -1.0220 N.ar    1  UNL1       -0.2401
     10  C7         0.9630   -0.7940    0.3960 C.ar    1  UNL1        0.0389
     11  C8         0.6850   -1.8390   -0.4460 C.ar    1  UNL1       -0.0495
     12  C9        -0.5390   -2.4900   -0.4390 C.ar    1  UNL1       -0.0592
     13  C10       -1.5240   -2.0930    0.4320 C.ar    1  UNL1       -0.0350
     14  C11       -1.2620   -1.0480    1.2820 C.ar    1  UNL1        0.1092
     15  S1        -2.4780   -0.4950    2.4050 S.O2    1  UNL1        0.0724
     16  O2        -3.4610   -1.5920    2.7550 O.2     1  UNL1       -0.1500
     17  O3        -1.8030   -0.0320    3.6870 O.2     1  UNL1       -0.1500
     18  N3        -3.3790    0.8340    1.7830 N.pl3   1  UNL1       -0.2135
     19  C12       -4.1790    0.7830    0.6140 C.ar    1  UNL1        0.0831
     20  C13       -4.6740   -0.4040    0.1520 C.ar    1  UNL1       -0.0365
     21  C14       -5.4590   -0.4530   -0.9760 C.ar    1  UNL1       -0.0598
     22  C15       -5.7660    0.6920   -1.6690 C.ar    1  UNL1       -0.0589
     23  C16       -5.2790    1.8950   -1.2220 C.ar    1  UNL1       -0.0246
     24  C17       -4.4880    1.9320   -0.0820 C.ar    1  UNL1        0.1456
     25  F1        -4.0110    3.1170    0.3540 F       1  UNL1       -0.2035
     26  C18       -0.0370   -0.4030    1.2690 C.ar    1  UNL1       -0.0230
     27 H           3.3058   -1.4089   -0.7623 H       1  UNL1        0.1566
     28 H           4.2952    1.6987    0.8549 H       1  UNL1        0.0652
     29 H           6.5282    2.6248    0.6972 H       1  UNL1        0.0619
     30 H           8.2252    1.4775   -0.5805 H       1  UNL1        0.0633
     31 H           7.6011   -0.5993   -1.6757 H       1  UNL1        0.0830
     32 H           1.4120   -2.1521   -1.1082 H       1  UNL1        0.0625
     33 H          -0.7101   -3.2734   -1.0886 H       1  UNL1        0.0618
     34 H          -2.4394   -2.5693    0.4469 H       1  UNL1        0.0637
     35 H          -3.3356    1.6871    2.2725 H       1  UNL1        0.1738
     36 H          -4.4554   -1.2769    0.6573 H       1  UNL1        0.0637
     37 H          -5.8217   -1.3612   -1.3056 H       1  UNL1        0.0618
     38 H          -6.3553    0.6486   -2.5151 H       1  UNL1        0.0618
     39 H          -5.4994    2.7659   -1.7300 H       1  UNL1        0.0647
     40 H           0.1327    0.3802    1.9193 H       1  UNL1        0.0645
@<TRIPOS>BOND
     1     1     2    2
     2     2     3   am
     3     2    10    1
     4     3     4    1
     5     4     5   ar
     6     4     9   ar
     7     5     6   ar
     8     6     7   ar
     9     7     8   ar
    10     8     9   ar
    11    10    11   ar
    12    10    26   ar
    13    11    12   ar
    14    12    13   ar
    15    13    14   ar
    16    14    15    1
    17    14    26   ar
    18    15    16    2
    19    15    17    2
    20    15    18    1
    21    18    19    1
    22    19    20   ar
    23    19    24   ar
    24    20    21   ar
    25    21    22   ar
    26    22    23   ar
    27    23    24   ar
    28    24    25    1
    29     3    27    1
    30     5    28    1
    31     6    29    1
    32     7    30    1
    33     8    31    1
    34    11    32    1
    35    12    33    1
    36    13    34    1
    37    18    35    1
    38    20    36    1
    39    21    37    1
    40    22    38    1
    41    23    39    1
    42    26    40    1
@<TRIPOS>MOLECULE
../data/bude_mols_rdkit_confs2/molecule_15.pdb
 40 42 0 0 0
SMALL
GASTEIGER

@<TRIPOS>ATOM
      1  O1         2.4570   -0.9290    1.0550 O.2     1  UNL1       -0.2698
      2  C1         2.2710    0.0740    0.3330 C.2     1  UNL1        0.2494
      3  N1         3.2850    0.4590   -0.5490 N.am    1  UNL1       -0.2664
      4  C2         4.5400   -0.1400   -0.7540 C.ar    1  UNL1        0.1251
      5  C3         5.0350   -1.2470   -0.1190 C.ar    1  UNL1       -0.0215
      6  C4         6.3130   -1.7670   -0.4020 C.ar    1  UNL1       -0.0571
      7  C5         7.1090   -1.1620   -1.3430 C.ar    1  UNL1       -0.0435
      8  C6         6.5890   -0.0500   -1.9690 C.ar    1  UNL1        0.0297
      9  N2         5.3660    0.4260   -1.6800 N.ar    1  UNL1       -0.2401
     10  C7         0.9760    0.7550    0.4940 C.ar    1  UNL1        0.0389
     11  C8         0.6360    1.8660   -0.2320 C.ar    1  UNL1       -0.0495
     12  C9        -0.5620    2.5280   -0.1100 C.ar    1  UNL1       -0.0592
     13  C10       -1.4760    2.0320    0.8070 C.ar    1  UNL1       -0.0350
     14  C11       -1.1730    0.9190    1.5550 C.ar    1  UNL1        0.1092
     15  S1        -2.3680    0.3330    2.6910 S.O2    1  UNL1        0.0724
     16  O2        -3.2890    1.4700    3.0210 O.2     1  UNL1       -0.1500
     17  O3        -1.7130   -0.1940    3.9380 O.2     1  UNL1       -0.1500
     18  N3        -3.3050   -0.8960    1.9240 N.pl3   1  UNL1       -0.2135
     19  C12       -4.1020   -0.7150    0.7900 C.ar    1  UNL1        0.0831
     20  C13       -4.6210    0.5010    0.4350 C.ar    1  UNL1       -0.0365
     21  C14       -5.4150    0.6390   -0.6880 C.ar    1  UNL1       -0.0598
     22  C15       -5.7040   -0.4460   -1.4780 C.ar    1  UNL1       -0.0589
     23  C16       -5.1910   -1.6760   -1.1360 C.ar    1  UNL1       -0.0246
     24  C17       -4.3990   -1.8040   -0.0130 C.ar    1  UNL1        0.1456
     25  F1        -3.8870   -3.0220    0.3320 F       1  UNL1       -0.2035
     26  C18        0.0440    0.2910    1.3940 C.ar    1  UNL1       -0.0230
     27 H           3.0953    1.2536   -1.0984 H       1  UNL1        0.1566
     28 H           4.4519   -1.7166    0.5913 H       1  UNL1        0.0652
     29 H           6.6515   -2.6037    0.0985 H       1  UNL1        0.0619
     30 H           8.0492   -1.5219   -1.5700 H       1  UNL1        0.0633
     31 H           7.1570    0.4327   -2.6827 H       1  UNL1        0.0830
     32 H           1.3220    2.2281   -0.9126 H       1  UNL1        0.0625
     33 H          -0.7733    3.3625   -0.6792 H       1  UNL1        0.0618
     34 H          -2.3876    2.5002    0.9286 H       1  UNL1        0.0637
     35 H          -3.2760   -1.7982    2.3170 H       1  UNL1        0.1738
     36 H          -4.4159    1.3290    1.0159 H       1  UNL1        0.0637
     37 H          -5.7942    1.5665   -0.9350 H       1  UNL1        0.0618
     38 H          -6.2972   -0.3406   -2.3159 H       1  UNL1        0.0618
     39 H          -5.3983   -2.5022   -1.7187 H       1  UNL1        0.0647
     40 H           0.2604   -0.5443    1.9601 H       1  UNL1        0.0645
@<TRIPOS>BOND
     1     1     2    2
     2     2     3   am
     3     2    10    1
     4     3     4    1
     5     4     5   ar
     6     4     9   ar
     7     5     6   ar
     8     6     7   ar
     9     7     8   ar
    10     8     9   ar
    11    10    11   ar
    12    10    26   ar
    13    11    12   ar
    14    12    13   ar
    15    13    14   ar
    16    14    15    1
    17    14    26   ar
    18    15    16    2
    19    15    17    2
    20    15    18    1
    21    18    19    1
    22    19    20   ar
    23    19    24   ar
    24    20    21   ar
    25    21    22   ar
    26    22    23   ar
    27    23    24   ar
    28    24    25    1
    29     3    27    1
    30     5    28    1
    31     6    29    1
    32     7    30    1
    33     8    31    1
    34    11    32    1
    35    12    33    1
    36    13    34    1
    37    18    35    1
    38    20    36    1
    39    21    37    1
    40    22    38    1
    41    23    39    1
    42    26    40    1
@<TRIPOS>MOLECULE
../data/bude_mols_rdkit_confs2/molecule_15.pdb
 40 42 0 0 0
SMALL
GASTEIGER

@<TRIPOS>ATOM
      1  O1        -1.7030    0.0740   -1.0740 O.2     1  UNL1       -0.2698
      2  C1        -1.8040   -0.1190    0.1700 C.2     1  UNL1        0.2494
      3  N1        -2.9190    0.4990    0.7980 N.am    1  UNL1       -0.2664
      4  C2        -3.8530    1.2850    0.0460 C.ar    1  UNL1        0.1251
      5  C3        -4.9100    1.8560    0.7080 C.ar    1  UNL1       -0.0215
      6  C4        -5.8530    2.6340    0.0230 C.ar    1  UNL1       -0.0571
      7  C5        -5.7060    2.8210   -1.3350 C.ar    1  UNL1       -0.0435
      8  C6        -4.6340    2.2330   -1.9700 C.ar    1  UNL1        0.0297
      9  N2        -3.7520    1.4940   -1.2740 N.ar    1  UNL1       -0.2401
     10  C7        -0.8310   -0.9250    0.8930 C.ar    1  UNL1        0.0389
     11  C8        -0.8710   -1.1810    2.2410 C.ar    1  UNL1       -0.0495
     12  C9         0.0850   -1.9580    2.8770 C.ar    1  UNL1       -0.0592
     13  C10        1.1100   -2.4910    2.1340 C.ar    1  UNL1       -0.0350
     14  C11        1.1950   -2.2600    0.7590 C.ar    1  UNL1        0.1092
     15  S1         2.5260   -2.9890   -0.0740 S.O2    1  UNL1        0.0724
     16  O2         2.1950   -3.3660   -1.4920 O.2     1  UNL1       -0.1500
     17  O3         2.8730   -4.2860    0.6390 O.2     1  UNL1       -0.1500
     18  N3         3.8970   -1.9660    0.0390 N.pl3   1  UNL1       -0.2135
     19  C12        3.8860   -0.6780   -0.4980 C.ar    1  UNL1        0.0831
     20  C13        3.0320   -0.3650   -1.5340 C.ar    1  UNL1       -0.0365
     21  C14        3.0530    0.9230   -2.0530 C.ar    1  UNL1       -0.0598
     22  C15        3.9150    1.8510   -1.5310 C.ar    1  UNL1       -0.0589
     23  C16        4.7730    1.5510   -0.4980 C.ar    1  UNL1       -0.0246
     24  C17        4.7610    0.2830    0.0220 C.ar    1  UNL1        0.1456
     25  F1         5.6090   -0.0110    1.0420 F       1  UNL1       -0.2035
     26  C18        0.2210   -1.4830    0.1810 C.ar    1  UNL1       -0.0230
     27 H          -3.0525    0.3854    1.7668 H       1  UNL1        0.1566
     28 H          -5.0122    1.7106    1.7246 H       1  UNL1        0.0652
     29 H          -6.6457    3.0606    0.5276 H       1  UNL1        0.0619
     30 H          -6.3849    3.3896   -1.8649 H       1  UNL1        0.0633
     31 H          -4.5071    2.3605   -2.9862 H       1  UNL1        0.0830
     32 H          -1.6400   -0.7809    2.8009 H       1  UNL1        0.0625
     33 H           0.0274   -2.1331    3.8924 H       1  UNL1        0.0618
     34 H           1.8272   -3.0701    2.5980 H       1  UNL1        0.0637
     35 H           4.7077   -2.2935    0.4915 H       1  UNL1        0.1738
     36 H           2.3886   -1.0751   -1.9170 H       1  UNL1        0.0637
     37 H           2.4222    1.1798   -2.8283 H       1  UNL1        0.0618
     38 H           3.9210    2.8049   -1.9248 H       1  UNL1        0.0618
     39 H           5.4136    2.2674   -0.1218 H       1  UNL1        0.0647
     40 H           0.2744   -1.3053   -0.8342 H       1  UNL1        0.0645
@<TRIPOS>BOND
     1     1     2    2
     2     2     3   am
     3     2    10    1
     4     3     4    1
     5     4     5   ar
     6     4     9   ar
     7     5     6   ar
     8     6     7   ar
     9     7     8   ar
    10     8     9   ar
    11    10    11   ar
    12    10    26   ar
    13    11    12   ar
    14    12    13   ar
    15    13    14   ar
    16    14    15    1
    17    14    26   ar
    18    15    16    2
    19    15    17    2
    20    15    18    1
    21    18    19    1
    22    19    20   ar
    23    19    24   ar
    24    20    21   ar
    25    21    22   ar
    26    22    23   ar
    27    23    24   ar
    28    24    25    1
    29     3    27    1
    30     5    28    1
    31     6    29    1
    32     7    30    1
    33     8    31    1
    34    11    32    1
    35    12    33    1
    36    13    34    1
    37    18    35    1
    38    20    36    1
    39    21    37    1
    40    22    38    1
    41    23    39    1
    42    26    40    1
@<TRIPOS>MOLECULE
../data/bude_mols_rdkit_confs2/molecule_15.pdb
 40 42 0 0 0
SMALL
GASTEIGER

@<TRIPOS>ATOM
      1  O1         3.1260    0.1100   -1.8330 O.2     1  UNL1       -0.2698
      2  C1         2.4150    0.2150   -0.8080 C.2     1  UNL1        0.2494
      3  N1         2.8560   -0.4030    0.3690 N.am    1  UNL1       -0.2664
      4  C2         4.0380   -1.1610    0.5770 C.ar    1  UNL1        0.1251
      5  C3         4.9840   -1.4280   -0.3670 C.ar    1  UNL1       -0.0215
      6  C4         6.1250   -2.1700   -0.1310 C.ar    1  UNL1       -0.0571
      7  C5         6.3250   -2.6750    1.1380 C.ar    1  UNL1       -0.0435
      8  C6         5.3670   -2.4080    2.1040 C.ar    1  UNL1        0.0297
      9  N2         4.2870   -1.6840    1.8110 N.ar    1  UNL1       -0.2401
     10  C7         1.1850    0.9750   -0.9330 C.ar    1  UNL1        0.0389
     11  C8         0.8540    1.5350   -2.1440 C.ar    1  UNL1       -0.0495
     12  C9        -0.3190    2.2740   -2.3090 C.ar    1  UNL1       -0.0592
     13  C10       -1.1720    2.4590   -1.2580 C.ar    1  UNL1       -0.0350
     14  C11       -0.8700    1.9130   -0.0370 C.ar    1  UNL1        0.1092
     15  S1        -1.9030    2.1000    1.3590 S.O2    1  UNL1        0.0724
     16  O2        -2.7460    3.3390    1.1870 O.2     1  UNL1       -0.1500
     17  O3        -1.0070    2.3860    2.5430 O.2     1  UNL1       -0.1500
     18  N3        -2.8570    0.7240    1.6440 N.pl3   1  UNL1       -0.2135
     19  C12       -3.8310    0.1510    0.7950 C.ar    1  UNL1        0.0831
     20  C13       -3.5110   -0.1560   -0.5050 C.ar    1  UNL1       -0.0365
     21  C14       -4.4780   -0.7370   -1.3090 C.ar    1  UNL1       -0.0598
     22  C15       -5.7210   -1.0000   -0.8250 C.ar    1  UNL1       -0.0589
     23  C16       -6.0500   -0.6920    0.4900 C.ar    1  UNL1       -0.0246
     24  C17       -5.1120   -0.1170    1.3050 C.ar    1  UNL1        0.1456
     25  F1        -5.3600    0.2130    2.6060 F       1  UNL1       -0.2035
     26  C18        0.3100    1.1790    0.0990 C.ar    1  UNL1       -0.0230
     27 H           2.2705   -0.2981    1.1535 H       1  UNL1        0.1566
     28 H           4.8389   -1.0525   -1.3172 H       1  UNL1        0.0652
     29 H           6.8098   -2.3422   -0.8836 H       1  UNL1        0.0619
     30 H           7.1628   -3.2347    1.3611 H       1  UNL1        0.0633
     31 H           5.4916   -2.7740    3.0608 H       1  UNL1        0.0830
     32 H           1.4867    1.4063   -2.9491 H       1  UNL1        0.0625
     33 H          -0.5429    2.6827   -3.2298 H       1  UNL1        0.0618
     34 H          -2.0381    3.0062   -1.3823 H       1  UNL1        0.0637
     35 H          -2.7141    0.2701    2.5058 H       1  UNL1        0.1738
     36 H          -2.5685    0.0423   -0.8756 H       1  UNL1        0.0637
     37 H          -4.2520   -0.9732   -2.2878 H       1  UNL1        0.0618
     38 H          -6.4276   -1.4328   -1.4402 H       1  UNL1        0.0618
     39 H          -6.9956   -0.8955    0.8498 H       1  UNL1        0.0647
     40 H           0.5325    0.7715    1.0206 H       1  UNL1        0.0645
@<TRIPOS>BOND
     1     1     2    2
     2     2     3   am
     3     2    10    1
     4     3     4    1
     5     4     5   ar
     6     4     9   ar
     7     5     6   ar
     8     6     7   ar
     9     7     8   ar
    10     8     9   ar
    11    10    11   ar
    12    10    26   ar
    13    11    12   ar
    14    12    13   ar
    15    13    14   ar
    16    14    15    1
    17    14    26   ar
    18    15    16    2
    19    15    17    2
    20    15    18    1
    21    18    19    1
    22    19    20   ar
    23    19    24   ar
    24    20    21   ar
    25    21    22   ar
    26    22    23   ar
    27    23    24   ar
    28    24    25    1
    29     3    27    1
    30     5    28    1
    31     6    29    1
    32     7    30    1
    33     8    31    1
    34    11    32    1
    35    12    33    1
    36    13    34    1
    37    18    35    1
    38    20    36    1
    39    21    37    1
    40    22    38    1
    41    23    39    1
    42    26    40    1
@<TRIPOS>MOLECULE
../data/bude_mols_rdkit_confs2/molecule_15.pdb
 40 42 0 0 0
SMALL
GASTEIGER

@<TRIPOS>ATOM
      1  O1        -2.7570   -0.9400   -1.7620 O.2     1  UNL1       -0.2698
      2  C1        -2.0930   -0.7960   -0.7170 C.2     1  UNL1        0.2494
      3  N1        -2.4320    0.1570    0.2380 N.am    1  UNL1       -0.2664
      4  C2        -3.5270    1.0440    0.1420 C.ar    1  UNL1        0.1251
      5  C3        -4.4070    1.0960   -0.8960 C.ar    1  UNL1       -0.0215
      6  C4        -5.4830    1.9840   -0.9670 C.ar    1  UNL1       -0.0571
      7  C5        -5.6540    2.8530    0.0780 C.ar    1  UNL1       -0.0435
      8  C6        -4.7540    2.7870    1.1200 C.ar    1  UNL1        0.0297
      9  N2        -3.7390    1.9360    1.1680 N.ar    1  UNL1       -0.2401
     10  C7        -0.9320   -1.7050   -0.5690 C.ar    1  UNL1        0.0389
     11  C8        -0.8330   -2.8050   -1.4080 C.ar    1  UNL1       -0.0495
     12  C9         0.2300   -3.6680   -1.3060 C.ar    1  UNL1       -0.0592
     13  C10        1.2100   -3.4460   -0.3660 C.ar    1  UNL1       -0.0350
     14  C11        1.1430   -2.3600    0.4850 C.ar    1  UNL1        0.1092
     15  S1         2.3630   -2.0500    1.6980 S.O2    1  UNL1        0.0724
     16  O2         1.6610   -1.3670    2.8370 O.2     1  UNL1       -0.1500
     17  O3         2.8310   -3.3750    2.2360 O.2     1  UNL1       -0.1500
     18  N3         3.7060   -1.1870    1.1310 N.pl3   1  UNL1       -0.2135
     19  C12        3.7020    0.1270    0.5920 C.ar    1  UNL1        0.0831
     20  C13        2.6790    1.0160    0.8300 C.ar    1  UNL1       -0.0365
     21  C14        2.7460    2.2850    0.2780 C.ar    1  UNL1       -0.0598
     22  C15        3.8100    2.6770   -0.5010 C.ar    1  UNL1       -0.0589
     23  C16        4.8590    1.8000   -0.7590 C.ar    1  UNL1       -0.0246
     24  C17        4.7630    0.5540   -0.1990 C.ar    1  UNL1        0.1456
     25  F1         5.8040   -0.3040   -0.4590 F       1  UNL1       -0.2035
     26  C18        0.0590   -1.5010    0.3640 C.ar    1  UNL1       -0.0230
     27 H          -1.8661    0.2178    1.0413 H       1  UNL1        0.1566
     28 H          -4.2704    0.4381   -1.6793 H       1  UNL1        0.0652
     29 H          -6.1243    1.9853   -1.7755 H       1  UNL1        0.0619
     30 H          -6.4298    3.5335    0.0849 H       1  UNL1        0.0633
     31 H          -4.8779    3.4393    1.9101 H       1  UNL1        0.0830
     32 H          -1.5648   -2.9763   -2.1152 H       1  UNL1        0.0625
     33 H           0.2940   -4.4838   -1.9348 H       1  UNL1        0.0618
     34 H           2.0056   -4.0995   -0.2958 H       1  UNL1        0.0637
     35 H           4.5775   -1.6424    1.1801 H       1  UNL1        0.1738
     36 H           1.8724    0.7411    1.4121 H       1  UNL1        0.0637
     37 H           1.9791    2.9524    0.4555 H       1  UNL1        0.0618
     38 H           3.8303    3.6296   -0.8974 H       1  UNL1        0.0618
     39 H           5.6660    2.0738   -1.3411 H       1  UNL1        0.0647
     40 H          -0.0056   -0.6850    0.9925 H       1  UNL1        0.0645
@<TRIPOS>BOND
     1     1     2    2
     2     2     3   am
     3     2    10    1
     4     3     4    1
     5     4     5   ar
     6     4     9   ar
     7     5     6   ar
     8     6     7   ar
     9     7     8   ar
    10     8     9   ar
    11    10    11   ar
    12    10    26   ar
    13    11    12   ar
    14    12    13   ar
    15    13    14   ar
    16    14    15    1
    17    14    26   ar
    18    15    16    2
    19    15    17    2
    20    15    18    1
    21    18    19    1
    22    19    20   ar
    23    19    24   ar
    24    20    21   ar
    25    21    22   ar
    26    22    23   ar
    27    23    24   ar
    28    24    25    1
    29     3    27    1
    30     5    28    1
    31     6    29    1
    32     7    30    1
    33     8    31    1
    34    11    32    1
    35    12    33    1
    36    13    34    1
    37    18    35    1
    38    20    36    1
    39    21    37    1
    40    22    38    1
    41    23    39    1
    42    26    40    1
@<TRIPOS>MOLECULE
../data/bude_mols_rdkit_confs2/molecule_15.pdb
 40 42 0 0 0
SMALL
GASTEIGER

@<TRIPOS>ATOM
      1  O1         2.9400   -1.1840    1.6280 O.2     1  UNL1       -0.2698
      2  C1         2.3630   -0.8490    0.5630 C.2     1  UNL1        0.2494
      3  N1         3.0170    0.0150   -0.3330 N.am    1  UNL1       -0.2664
      4  C2         4.3020    0.5760   -0.1680 C.ar    1  UNL1        0.1251
      5  C3         5.1320    0.3750    0.8930 C.ar    1  UNL1       -0.0215
      6  C4         6.3880    1.0020    0.9220 C.ar    1  UNL1       -0.0571
      7  C5         6.7580    1.8090   -0.1240 C.ar    1  UNL1       -0.0435
      8  C6         5.9120    2.0080   -1.1960 C.ar    1  UNL1        0.0297
      9  N2         4.7440    1.3950   -1.1710 N.ar    1  UNL1       -0.2401
     10  C7         1.0160   -1.3630    0.2650 C.ar    1  UNL1        0.0389
     11  C8         0.5360   -2.4300    0.9910 C.ar    1  UNL1       -0.0495
     12  C9        -0.7420   -2.9500    0.7510 C.ar    1  UNL1       -0.0592
     13  C10       -1.5110   -2.3670   -0.2340 C.ar    1  UNL1       -0.0350
     14  C11       -1.0490   -1.3050   -0.9640 C.ar    1  UNL1        0.1092
     15  S1        -2.0510   -0.6020   -2.1940 S.O2    1  UNL1        0.0724
     16  O2        -1.2570   -0.3950   -3.4810 O.2     1  UNL1       -0.1500
     17  O3        -3.1200   -1.6350   -2.5490 O.2     1  UNL1       -0.1500
     18  N3        -2.8760    0.8110   -1.7520 N.pl3   1  UNL1       -0.2135
     19  C12       -3.8210    0.8260   -0.7020 C.ar    1  UNL1        0.0831
     20  C13       -3.5200    0.3930    0.5650 C.ar    1  UNL1       -0.0365
     21  C14       -4.4750    0.4430    1.5920 C.ar    1  UNL1       -0.0598
     22  C15       -5.7470    0.9260    1.3770 C.ar    1  UNL1       -0.0589
     23  C16       -6.0360    1.3580    0.1010 C.ar    1  UNL1       -0.0246
     24  C17       -5.1110    1.3150   -0.9140 C.ar    1  UNL1        0.1456
     25  F1        -5.4730    1.7560   -2.1340 F       1  UNL1       -0.2035
     26  C18        0.2360   -0.8020   -0.7040 C.ar    1  UNL1       -0.0230
     27 H           2.5313    0.2519   -1.1559 H       1  UNL1        0.1566
     28 H           4.8391   -0.2353    1.6720 H       1  UNL1        0.0652
     29 H           7.0253    0.8575    1.7207 H       1  UNL1        0.0619
     30 H           7.6798    2.2727   -0.1090 H       1  UNL1        0.0633
     31 H           6.1826    2.6132   -1.9869 H       1  UNL1        0.0830
     32 H           1.1272   -2.8531    1.7234 H       1  UNL1        0.0625
     33 H          -1.0992   -3.7493    1.2975 H       1  UNL1        0.0618
     34 H          -2.4545   -2.7390   -0.4249 H       1  UNL1        0.0637
     35 H          -2.6914    1.6453   -2.2410 H       1  UNL1        0.1738
     36 H          -2.5769    0.0250    0.7656 H       1  UNL1        0.0637
     37 H          -4.2174    0.1089    2.5338 H       1  UNL1        0.0618
     38 H          -6.4481    0.9624    2.1334 H       1  UNL1        0.0618
     39 H          -6.9791    1.7263   -0.0991 H       1  UNL1        0.0647
     40 H           0.5931   -0.0022   -1.2497 H       1  UNL1        0.0645
@<TRIPOS>BOND
     1     1     2    2
     2     2     3   am
     3     2    10    1
     4     3     4    1
     5     4     5   ar
     6     4     9   ar
     7     5     6   ar
     8     6     7   ar
     9     7     8   ar
    10     8     9   ar
    11    10    11   ar
    12    10    26   ar
    13    11    12   ar
    14    12    13   ar
    15    13    14   ar
    16    14    15    1
    17    14    26   ar
    18    15    16    2
    19    15    17    2
    20    15    18    1
    21    18    19    1
    22    19    20   ar
    23    19    24   ar
    24    20    21   ar
    25    21    22   ar
    26    22    23   ar
    27    23    24   ar
    28    24    25    1
    29     3    27    1
    30     5    28    1
    31     6    29    1
    32     7    30    1
    33     8    31    1
    34    11    32    1
    35    12    33    1
    36    13    34    1
    37    18    35    1
    38    20    36    1
    39    21    37    1
    40    22    38    1
    41    23    39    1
    42    26    40    1
@<TRIPOS>MOLECULE
../data/bude_mols_rdkit_confs2/molecule_15.pdb
 40 42 0 0 0
SMALL
GASTEIGER

@<TRIPOS>ATOM
      1  O1         3.2680    1.1600    1.4160 O.2     1  UNL1       -0.2698
      2  C1         2.2660    0.9000    0.6980 C.2     1  UNL1        0.2494
      3  N1         2.3930   -0.0350   -0.3540 N.am    1  UNL1       -0.2664
      4  C2         3.5570   -0.7420   -0.7120 C.ar    1  UNL1        0.1251
      5  C3         4.7850   -0.6750   -0.1320 C.ar    1  UNL1       -0.0215
      6  C4         5.8750   -1.4170   -0.5610 C.ar    1  UNL1       -0.0571
      7  C5         5.7180   -2.2650   -1.6260 C.ar    1  UNL1       -0.0435
      8  C6         4.4760   -2.3360   -2.2190 C.ar    1  UNL1        0.0297
      9  N2         3.4510   -1.5990   -1.7670 N.ar    1  UNL1       -0.2401
     10  C7         0.9890    1.5870    0.9870 C.ar    1  UNL1        0.0389
     11  C8         0.8950    2.2980    2.1910 C.ar    1  UNL1       -0.0495
     12  C9        -0.2520    2.9590    2.5190 C.ar    1  UNL1       -0.0592
     13  C10       -1.3240    2.9390    1.6800 C.ar    1  UNL1       -0.0350
     14  C11       -1.2670    2.2490    0.4850 C.ar    1  UNL1        0.1092
     15  S1        -2.6180    2.2520   -0.6100 S.O2    1  UNL1        0.0724
     16  O2        -3.1900    3.6580   -0.7190 O.2     1  UNL1       -0.1500
     17  O3        -2.1190    1.8340   -1.9890 O.2     1  UNL1       -0.1500
     18  N3        -3.8480    1.1820   -0.1070 N.pl3   1  UNL1       -0.2135
     19  C12       -3.7310   -0.2090    0.0450 C.ar    1  UNL1        0.0831
     20  C13       -2.7240   -0.8840    0.6670 C.ar    1  UNL1       -0.0365
     21  C14       -2.7520   -2.2580    0.7560 C.ar    1  UNL1       -0.0598
     22  C15       -3.7760   -3.0100    0.2330 C.ar    1  UNL1       -0.0589
     23  C16       -4.7860   -2.3190   -0.3910 C.ar    1  UNL1       -0.0246
     24  C17       -4.7800   -0.9630   -0.4910 C.ar    1  UNL1        0.1456
     25  F1        -5.8020   -0.3080   -1.1190 F       1  UNL1       -0.2035
     26  C18       -0.0880    1.5780    0.1630 C.ar    1  UNL1       -0.0230
     27 H           1.5864   -0.2097   -0.8907 H       1  UNL1        0.1566
     28 H           4.9125   -0.0382    0.6700 H       1  UNL1        0.0652
     29 H           6.7877   -1.3322   -0.0870 H       1  UNL1        0.0619
     30 H           6.5062   -2.8334   -1.9735 H       1  UNL1        0.0633
     31 H           4.3326   -2.9662   -3.0235 H       1  UNL1        0.0830
     32 H           1.7009    2.3216    2.8352 H       1  UNL1        0.0625
     33 H          -0.3077    3.4779    3.4093 H       1  UNL1        0.0618
     34 H          -2.1862    3.4435    1.9391 H       1  UNL1        0.0637
     35 H          -4.7257    1.5787    0.0966 H       1  UNL1        0.1738
     36 H          -1.9334   -0.3610    1.0750 H       1  UNL1        0.0637
     37 H          -1.9748   -2.7408    1.2334 H       1  UNL1        0.0618
     38 H          -3.7859   -4.0394    0.3051 H       1  UNL1        0.0618
     39 H          -5.5749   -2.8461   -0.7970 H       1  UNL1        0.0647
     40 H          -0.0334    1.0597   -0.7278 H       1  UNL1        0.0645
@<TRIPOS>BOND
     1     1     2    2
     2     2     3   am
     3     2    10    1
     4     3     4    1
     5     4     5   ar
     6     4     9   ar
     7     5     6   ar
     8     6     7   ar
     9     7     8   ar
    10     8     9   ar
    11    10    11   ar
    12    10    26   ar
    13    11    12   ar
    14    12    13   ar
    15    13    14   ar
    16    14    15    1
    17    14    26   ar
    18    15    16    2
    19    15    17    2
    20    15    18    1
    21    18    19    1
    22    19    20   ar
    23    19    24   ar
    24    20    21   ar
    25    21    22   ar
    26    22    23   ar
    27    23    24   ar
    28    24    25    1
    29     3    27    1
    30     5    28    1
    31     6    29    1
    32     7    30    1
    33     8    31    1
    34    11    32    1
    35    12    33    1
    36    13    34    1
    37    18    35    1
    38    20    36    1
    39    21    37    1
    40    22    38    1
    41    23    39    1
    42    26    40    1
@<TRIPOS>MOLECULE
../data/bude_mols_rdkit_confs2/molecule_15.pdb
 40 42 0 0 0
SMALL
GASTEIGER

@<TRIPOS>ATOM
      1  O1         3.0550    0.2820   -1.9320 O.2     1  UNL1       -0.2698
      2  C1         2.3650   -0.1470   -0.9750 C.2     1  UNL1        0.2494
      3  N1         2.9780   -0.2000    0.2890 N.am    1  UNL1       -0.2664
      4  C2         4.2880    0.1670    0.6470 C.ar    1  UNL1        0.1251
      5  C3         5.2540    0.6590   -0.1720 C.ar    1  UNL1       -0.0215
      6  C4         6.5450    1.0030    0.2690 C.ar    1  UNL1       -0.0571
      7  C5         6.8460    0.8320    1.5940 C.ar    1  UNL1       -0.0435
      8  C6         5.8570    0.3320    2.4110 C.ar    1  UNL1        0.0297
      9  N2         4.6400    0.0150    1.9620 N.ar    1  UNL1       -0.2401
     10  C7         0.9880   -0.5580   -1.2280 C.ar    1  UNL1        0.0389
     11  C8         0.5030   -0.4580   -2.5120 C.ar    1  UNL1       -0.0495
     12  C9        -0.7700   -0.8140   -2.8650 C.ar    1  UNL1       -0.0592
     13  C10       -1.5930   -1.3000   -1.8420 C.ar    1  UNL1       -0.0350
     14  C11       -1.1650   -1.4230   -0.5420 C.ar    1  UNL1        0.1092
     15  S1        -2.1800   -2.0220    0.7510 S.O2    1  UNL1        0.0724
     16  O2        -3.1780   -3.0310    0.2280 O.2     1  UNL1       -0.1500
     17  O3        -1.3010   -2.8060    1.7180 O.2     1  UNL1       -0.1500
     18  N3        -2.9650   -0.7760    1.6080 N.pl3   1  UNL1       -0.2135
     19  C12       -3.8720    0.0810    0.9600 C.ar    1  UNL1        0.0831
     20  C13       -4.5480   -0.2480   -0.1910 C.ar    1  UNL1       -0.0365
     21  C14       -5.4410    0.6340   -0.7850 C.ar    1  UNL1       -0.0598
     22  C15       -5.6610    1.8710   -0.2130 C.ar    1  UNL1       -0.0589
     23  C16       -4.9960    2.2260    0.9420 C.ar    1  UNL1       -0.0246
     24  C17       -4.1160    1.3250    1.5040 C.ar    1  UNL1        0.1456
     25  F1        -3.4790    1.7200    2.6500 F       1  UNL1       -0.2035
     26  C18        0.1550   -1.0350   -0.2690 C.ar    1  UNL1       -0.0230
     27 H           2.4151   -0.5395    1.0219 H       1  UNL1        0.1566
     28 H           5.0288    0.7872   -1.1709 H       1  UNL1        0.0652
     29 H           7.2474    1.3748   -0.3894 H       1  UNL1        0.0619
     30 H           7.7790    1.0690    1.9661 H       1  UNL1        0.0633
     31 H           6.0650    0.1965    3.4127 H       1  UNL1        0.0830
     32 H           1.1316   -0.0960   -3.2461 H       1  UNL1        0.0625
     33 H          -1.1067   -0.7286   -3.8368 H       1  UNL1        0.0618
     34 H          -2.5598   -1.5770   -2.0735 H       1  UNL1        0.0637
     35 H          -2.7815   -0.6548    2.5676 H       1  UNL1        0.1738
     36 H          -4.3882   -1.1713   -0.6233 H       1  UNL1        0.0637
     37 H          -5.9374    0.3663   -1.6492 H       1  UNL1        0.0618
     38 H          -6.3236    2.5306   -0.6500 H       1  UNL1        0.0618
     39 H          -5.1539    3.1482    1.3774 H       1  UNL1        0.0647
     40 H           0.5060   -1.1154    0.6981 H       1  UNL1        0.0645
@<TRIPOS>BOND
     1     1     2    2
     2     2     3   am
     3     2    10    1
     4     3     4    1
     5     4     5   ar
     6     4     9   ar
     7     5     6   ar
     8     6     7   ar
     9     7     8   ar
    10     8     9   ar
    11    10    11   ar
    12    10    26   ar
    13    11    12   ar
    14    12    13   ar
    15    13    14   ar
    16    14    15    1
    17    14    26   ar
    18    15    16    2
    19    15    17    2
    20    15    18    1
    21    18    19    1
    22    19    20   ar
    23    19    24   ar
    24    20    21   ar
    25    21    22   ar
    26    22    23   ar
    27    23    24   ar
    28    24    25    1
    29     3    27    1
    30     5    28    1
    31     6    29    1
    32     7    30    1
    33     8    31    1
    34    11    32    1
    35    12    33    1
    36    13    34    1
    37    18    35    1
    38    20    36    1
    39    21    37    1
    40    22    38    1
    41    23    39    1
    42    26    40    1
@<TRIPOS>MOLECULE
../data/bude_mols_rdkit_confs2/molecule_15.pdb
 40 42 0 0 0
SMALL
GASTEIGER

@<TRIPOS>ATOM
      1  O1         1.8750    0.9830   -0.0980 O.2     1  UNL1       -0.2698
      2  C1         1.8810   -0.2550   -0.3070 C.2     1  UNL1        0.2494
      3  N1         2.8420   -1.0450    0.3230 N.am    1  UNL1       -0.2664
      4  C2         3.8540   -0.5980    1.2050 C.ar    1  UNL1        0.1251
      5  C3         4.0830    0.6850    1.6070 C.ar    1  UNL1       -0.0215
      6  C4         5.1280    0.9940    2.4910 C.ar    1  UNL1       -0.0571
      7  C5         5.9600    0.0160    2.9860 C.ar    1  UNL1       -0.0435
      8  C6         5.7080   -1.2750    2.5650 C.ar    1  UNL1        0.0297
      9  N2         4.7090   -1.5340    1.7250 N.ar    1  UNL1       -0.2401
     10  C7         0.8540   -0.8330   -1.2230 C.ar    1  UNL1        0.0389
     11  C8         0.8690   -2.1490   -1.5960 C.ar    1  UNL1       -0.0495
     12  C9        -0.1050   -2.6530   -2.4490 C.ar    1  UNL1       -0.0592
     13  C10       -1.0870   -1.8070   -2.9140 C.ar    1  UNL1       -0.0350
     14  C11       -1.1260   -0.4770   -2.5540 C.ar    1  UNL1        0.1092
     15  S1        -2.3460    0.6200   -3.1290 S.O2    1  UNL1        0.0724
     16  O2        -1.7800    2.0290   -3.0570 O.2     1  UNL1       -0.1500
     17  O3        -2.6110    0.2470   -4.5740 O.2     1  UNL1       -0.1500
     18  N3        -3.7850    0.6060   -2.2120 N.pl3   1  UNL1       -0.2135
     19  C12       -3.8480    0.9570   -0.8460 C.ar    1  UNL1        0.0831
     20  C13       -2.9240    1.7470   -0.1950 C.ar    1  UNL1       -0.0365
     21  C14       -3.0760    2.0450    1.1450 C.ar    1  UNL1       -0.0598
     22  C15       -4.1360    1.5790    1.8890 C.ar    1  UNL1       -0.0589
     23  C16       -5.0660    0.7930    1.2610 C.ar    1  UNL1       -0.0246
     24  C17       -4.9220    0.4910   -0.0750 C.ar    1  UNL1        0.1456
     25  F1        -5.8760   -0.2900   -0.6330 F       1  UNL1       -0.2035
     26  C18       -0.1490   -0.0130   -1.7100 C.ar    1  UNL1       -0.0230
     27 H           2.8134   -2.0110    0.1352 H       1  UNL1        0.1566
     28 H           3.4768    1.4422    1.2547 H       1  UNL1        0.0652
     29 H           5.2757    1.9749    2.7758 H       1  UNL1        0.0619
     30 H           6.7305    0.2354    3.6366 H       1  UNL1        0.0633
     31 H           6.3012   -2.0476    2.9058 H       1  UNL1        0.0830
     32 H           1.6103   -2.7729   -1.2407 H       1  UNL1        0.0625
     33 H          -0.0927   -3.6460   -2.7298 H       1  UNL1        0.0618
     34 H          -1.8119   -2.1780   -3.5479 H       1  UNL1        0.0637
     35 H          -4.6190    0.3378   -2.6612 H       1  UNL1        0.1738
     36 H          -2.1125    2.1185   -0.7132 H       1  UNL1        0.0637
     37 H          -2.3687    2.6390    1.6054 H       1  UNL1        0.0618
     38 H          -4.2275    1.8145    2.8896 H       1  UNL1        0.0618
     39 H          -5.8740    0.4274    1.7888 H       1  UNL1        0.0647
     40 H          -0.1624    0.9799   -1.4291 H       1  UNL1        0.0645
@<TRIPOS>BOND
     1     1     2    2
     2     2     3   am
     3     2    10    1
     4     3     4    1
     5     4     5   ar
     6     4     9   ar
     7     5     6   ar
     8     6     7   ar
     9     7     8   ar
    10     8     9   ar
    11    10    11   ar
    12    10    26   ar
    13    11    12   ar
    14    12    13   ar
    15    13    14   ar
    16    14    15    1
    17    14    26   ar
    18    15    16    2
    19    15    17    2
    20    15    18    1
    21    18    19    1
    22    19    20   ar
    23    19    24   ar
    24    20    21   ar
    25    21    22   ar
    26    22    23   ar
    27    23    24   ar
    28    24    25    1
    29     3    27    1
    30     5    28    1
    31     6    29    1
    32     7    30    1
    33     8    31    1
    34    11    32    1
    35    12    33    1
    36    13    34    1
    37    18    35    1
    38    20    36    1
    39    21    37    1
    40    22    38    1
    41    23    39    1
    42    26    40    1
@<TRIPOS>MOLECULE
../data/bude_mols_rdkit_confs2/molecule_15.pdb
 40 42 0 0 0
SMALL
GASTEIGER

@<TRIPOS>ATOM
      1  O1        -3.2170   -1.4010   -1.6970 O.2     1  UNL1       -0.2698
      2  C1        -2.4490   -0.6150   -1.0970 C.2     1  UNL1        0.2494
      3  N1        -2.8550    0.2350   -0.0500 N.am    1  UNL1       -0.2664
      4  C2        -4.1690    0.2910    0.4330 C.ar    1  UNL1        0.1251
      5  C3        -5.1880   -0.4650   -0.0570 C.ar    1  UNL1       -0.0215
      6  C4        -6.4690   -0.3240    0.5060 C.ar    1  UNL1       -0.0571
      7  C5        -6.6920    0.5650    1.5380 C.ar    1  UNL1       -0.0435
      8  C6        -5.6250    1.3040    1.9940 C.ar    1  UNL1        0.0297
      9  N2        -4.4050    1.1710    1.4590 N.ar    1  UNL1       -0.2401
     10  C7        -1.0460   -0.6370   -1.5720 C.ar    1  UNL1        0.0389
     11  C8        -0.5570   -1.7050   -2.3130 C.ar    1  UNL1       -0.0495
     12  C9         0.7430   -1.7450   -2.7730 C.ar    1  UNL1       -0.0592
     13  C10        1.5850   -0.6810   -2.4840 C.ar    1  UNL1       -0.0350
     14  C11        1.1070    0.3690   -1.7550 C.ar    1  UNL1        0.1092
     15  S1         2.1110    1.7230   -1.3540 S.O2    1  UNL1        0.0724
     16  O2         1.2610    2.9580   -1.4260 O.2     1  UNL1       -0.1500
     17  O3         3.1620    1.8120   -2.4560 O.2     1  UNL1       -0.1500
     18  N3         2.8770    1.6460    0.1550 N.pl3   1  UNL1       -0.2135
     19  C12        3.8080    0.6820    0.5810 C.ar    1  UNL1        0.0831
     20  C13        4.5250   -0.1410   -0.2820 C.ar    1  UNL1       -0.0365
     21  C14        5.4210   -1.0500    0.2420 C.ar    1  UNL1       -0.0598
     22  C15        5.6540   -1.1950    1.5940 C.ar    1  UNL1       -0.0589
     23  C16        4.9450   -0.3810    2.4510 C.ar    1  UNL1       -0.0246
     24  C17        4.0440    0.5350    1.9370 C.ar    1  UNL1        0.1456
     25  F1         3.3600    1.3250    2.8310 F       1  UNL1       -0.2035
     26  C18       -0.2190    0.4140   -1.2840 C.ar    1  UNL1       -0.0230
     27 H          -2.1803    0.8203    0.3641 H       1  UNL1        0.1566
     28 H          -5.0240   -1.1305   -0.8285 H       1  UNL1        0.0652
     29 H          -7.2510   -0.8915    0.1435 H       1  UNL1        0.0619
     30 H          -7.6301    0.6720    1.9546 H       1  UNL1        0.0633
     31 H          -5.7680    1.9751    2.7648 H       1  UNL1        0.0830
     32 H          -1.1866   -2.4944   -2.5265 H       1  UNL1        0.0625
     33 H           1.0825   -2.5507   -3.3214 H       1  UNL1        0.0618
     34 H           2.5619   -0.6835   -2.8166 H       1  UNL1        0.0637
     35 H           2.6459    2.3508    0.8023 H       1  UNL1        0.1738
     36 H           4.3881   -0.0723   -1.3026 H       1  UNL1        0.0637
     37 H           5.9444   -1.6531   -0.4118 H       1  UNL1        0.0618
     38 H           6.3328   -1.8861    1.9499 H       1  UNL1        0.0618
     39 H           5.0853   -0.4542    3.4708 H       1  UNL1        0.0647
     40 H          -0.5585    1.2195   -0.7354 H       1  UNL1        0.0645
@<TRIPOS>BOND
     1     1     2    2
     2     2     3   am
     3     2    10    1
     4     3     4    1
     5     4     5   ar
     6     4     9   ar
     7     5     6   ar
     8     6     7   ar
     9     7     8   ar
    10     8     9   ar
    11    10    11   ar
    12    10    26   ar
    13    11    12   ar
    14    12    13   ar
    15    13    14   ar
    16    14    15    1
    17    14    26   ar
    18    15    16    2
    19    15    17    2
    20    15    18    1
    21    18    19    1
    22    19    20   ar
    23    19    24   ar
    24    20    21   ar
    25    21    22   ar
    26    22    23   ar
    27    23    24   ar
    28    24    25    1
    29     3    27    1
    30     5    28    1
    31     6    29    1
    32     7    30    1
    33     8    31    1
    34    11    32    1
    35    12    33    1
    36    13    34    1
    37    18    35    1
    38    20    36    1
    39    21    37    1
    40    22    38    1
    41    23    39    1
    42    26    40    1
@<TRIPOS>MOLECULE
../data/bude_mols_rdkit_confs2/molecule_15.pdb
 40 42 0 0 0
SMALL
GASTEIGER

@<TRIPOS>ATOM
      1  O1         1.6530   -0.0610    1.1210 O.2     1  UNL1       -0.2698
      2  C1         1.9370    0.1760   -0.0760 C.2     1  UNL1        0.2494
      3  N1         3.1500    0.8070   -0.4070 N.am    1  UNL1       -0.2664
      4  C2         4.1200    1.2180    0.5140 C.ar    1  UNL1        0.1251
      5  C3         4.0840    1.0930    1.8780 C.ar    1  UNL1       -0.0215
      6  C4         5.1290    1.5510    2.6910 C.ar    1  UNL1       -0.0571
      7  C5         6.2150    2.1370    2.1180 C.ar    1  UNL1       -0.0435
      8  C6         6.2270    2.2510    0.7480 C.ar    1  UNL1        0.0297
      9  N2         5.2310    1.8130   -0.0060 N.ar    1  UNL1       -0.2401
     10  C7         0.9680   -0.2250   -1.1250 C.ar    1  UNL1        0.0389
     11  C8         1.0780    0.1680   -2.4330 C.ar    1  UNL1       -0.0495
     12  C9         0.1300   -0.2530   -3.3660 C.ar    1  UNL1       -0.0592
     13  C10       -0.9300   -1.0570   -3.0280 C.ar    1  UNL1       -0.0350
     14  C11       -1.0440   -1.4580   -1.6970 C.ar    1  UNL1        0.1092
     15  S1        -2.3240   -2.5030   -1.1660 S.O2    1  UNL1        0.0724
     16  O2        -1.8810   -3.1560    0.1210 O.2     1  UNL1       -0.1500
     17  O3        -2.4890   -3.5520   -2.2490 O.2     1  UNL1       -0.1500
     18  N3        -3.8210   -1.7720   -0.9010 N.pl3   1  UNL1       -0.2135
     19  C12       -4.0700   -0.7520    0.0510 C.ar    1  UNL1        0.0831
     20  C13       -3.2830    0.3670    0.1800 C.ar    1  UNL1       -0.0365
     21  C14       -3.5630    1.3550    1.1060 C.ar    1  UNL1       -0.0598
     22  C15       -4.6630    1.2040    1.9160 C.ar    1  UNL1       -0.0589
     23  C16       -5.4760    0.0990    1.8180 C.ar    1  UNL1       -0.0246
     24  C17       -5.1910   -0.8770    0.8970 C.ar    1  UNL1        0.1456
     25  F1        -5.9610   -1.9740    0.7690 F       1  UNL1       -0.2035
     26  C18       -0.1000   -1.0380   -0.7750 C.ar    1  UNL1       -0.0230
     27 H           3.3304    0.9722   -1.3606 H       1  UNL1        0.1566
     28 H           3.2636    0.6487    2.3191 H       1  UNL1        0.0652
     29 H           5.0755    1.4448    3.7161 H       1  UNL1        0.0619
     30 H           7.0007    2.4831    2.6906 H       1  UNL1        0.0633
     31 H           7.0403    2.6931    0.2918 H       1  UNL1        0.0830
     32 H           1.8600    0.7738   -2.7272 H       1  UNL1        0.0625
     33 H           0.2294    0.0515   -4.3470 H       1  UNL1        0.0618
     34 H          -1.6198   -1.3549   -3.7354 H       1  UNL1        0.0637
     35 H          -4.5795   -2.0772   -1.4494 H       1  UNL1        0.1738
     36 H          -2.4589    0.4731   -0.4321 H       1  UNL1        0.0637
     37 H          -2.9590    2.1878    1.1871 H       1  UNL1        0.0618
     38 H          -4.8833    1.9341    2.6114 H       1  UNL1        0.0618
     39 H          -6.2977    0.0044    2.4352 H       1  UNL1        0.0647
     40 H          -0.1944   -1.3405    0.2071 H       1  UNL1        0.0645
@<TRIPOS>BOND
     1     1     2    2
     2     2     3   am
     3     2    10    1
     4     3     4    1
     5     4     5   ar
     6     4     9   ar
     7     5     6   ar
     8     6     7   ar
     9     7     8   ar
    10     8     9   ar
    11    10    11   ar
    12    10    26   ar
    13    11    12   ar
    14    12    13   ar
    15    13    14   ar
    16    14    15    1
    17    14    26   ar
    18    15    16    2
    19    15    17    2
    20    15    18    1
    21    18    19    1
    22    19    20   ar
    23    19    24   ar
    24    20    21   ar
    25    21    22   ar
    26    22    23   ar
    27    23    24   ar
    28    24    25    1
    29     3    27    1
    30     5    28    1
    31     6    29    1
    32     7    30    1
    33     8    31    1
    34    11    32    1
    35    12    33    1
    36    13    34    1
    37    18    35    1
    38    20    36    1
    39    21    37    1
    40    22    38    1
    41    23    39    1
    42    26    40    1
@<TRIPOS>MOLECULE
../data/bude_mols_rdkit_confs2/molecule_15.pdb
 40 42 0 0 0
SMALL
GASTEIGER

@<TRIPOS>ATOM
      1  O1         1.3680    0.7070   -1.3000 O.2     1  UNL1       -0.2698
      2  C1         1.8140   -0.0980   -0.4170 C.2     1  UNL1        0.2494
      3  N1         3.0960    0.1600    0.1240 N.am    1  UNL1       -0.2664
      4  C2         3.8230    1.2830   -0.3280 C.ar    1  UNL1        0.1251
      5  C3         5.0890    1.5170    0.2230 C.ar    1  UNL1       -0.0215
      6  C4         5.7750    2.6150   -0.2320 C.ar    1  UNL1       -0.0571
      7  C5         5.2310    3.4430   -1.1910 C.ar    1  UNL1       -0.0435
      8  C6         3.9810    3.1460   -1.6840 C.ar    1  UNL1        0.0297
      9  N2         3.2940    2.0810   -1.2540 N.ar    1  UNL1       -0.2401
     10  C7         1.0070   -1.2200   -0.0130 C.ar    1  UNL1        0.0389
     11  C8         1.4710   -2.1030    0.9340 C.ar    1  UNL1       -0.0495
     12  C9         0.6350   -3.1610    1.2720 C.ar    1  UNL1       -0.0592
     13  C10       -0.6040   -3.3330    0.6960 C.ar    1  UNL1       -0.0350
     14  C11       -1.0710   -2.4390   -0.2600 C.ar    1  UNL1        0.1092
     15  S1        -2.6160   -2.6130   -1.0240 S.O2    1  UNL1        0.0724
     16  O2        -2.5500   -1.9570   -2.3810 O.2     1  UNL1       -0.1500
     17  O3        -2.8170   -4.1000   -1.2640 O.2     1  UNL1       -0.1500
     18  N3        -3.9050   -1.9400   -0.1430 N.pl3   1  UNL1       -0.2135
     19  C12       -3.9460   -0.5600    0.1410 C.ar    1  UNL1        0.0831
     20  C13       -3.3360    0.4250   -0.5920 C.ar    1  UNL1       -0.0365
     21  C14       -3.4090    1.7790   -0.2830 C.ar    1  UNL1       -0.0598
     22  C15       -4.1250    2.1670    0.8070 C.ar    1  UNL1       -0.0589
     23  C16       -4.7490    1.2030    1.5640 C.ar    1  UNL1       -0.0246
     24  C17       -4.6710   -0.1180    1.2530 C.ar    1  UNL1        0.1456
     25  F1        -5.3110   -1.0130    2.0420 F       1  UNL1       -0.2035
     26  C18       -0.2560   -1.3950   -0.6000 C.ar    1  UNL1       -0.0230
     27 H           3.4768   -0.4369    0.8080 H       1  UNL1        0.1566
     28 H           5.4885    0.8912    0.9398 H       1  UNL1        0.0652
     29 H           6.7111    2.8239    0.1489 H       1  UNL1        0.0619
     30 H           5.7499    4.2675   -1.5316 H       1  UNL1        0.0633
     31 H           3.5637    3.7587   -2.4019 H       1  UNL1        0.0830
     32 H           2.3973   -1.9855    1.3735 H       1  UNL1        0.0625
     33 H           0.9540   -3.8414    1.9793 H       1  UNL1        0.0618
     34 H          -1.1914   -4.1336    0.9770 H       1  UNL1        0.0637
     35 H          -4.6330   -2.5224    0.1732 H       1  UNL1        0.1738
     36 H          -2.7904    0.1452   -1.4221 H       1  UNL1        0.0637
     37 H          -2.9281    2.4778   -0.8707 H       1  UNL1        0.0618
     38 H          -4.1984    3.1646    1.0607 H       1  UNL1        0.0618
     39 H          -5.2925    1.4911    2.3926 H       1  UNL1        0.0647
     40 H          -0.5785   -0.7168   -1.3079 H       1  UNL1        0.0645
@<TRIPOS>BOND
     1     1     2    2
     2     2     3   am
     3     2    10    1
     4     3     4    1
     5     4     5   ar
     6     4     9   ar
     7     5     6   ar
     8     6     7   ar
     9     7     8   ar
    10     8     9   ar
    11    10    11   ar
    12    10    26   ar
    13    11    12   ar
    14    12    13   ar
    15    13    14   ar
    16    14    15    1
    17    14    26   ar
    18    15    16    2
    19    15    17    2
    20    15    18    1
    21    18    19    1
    22    19    20   ar
    23    19    24   ar
    24    20    21   ar
    25    21    22   ar
    26    22    23   ar
    27    23    24   ar
    28    24    25    1
    29     3    27    1
    30     5    28    1
    31     6    29    1
    32     7    30    1
    33     8    31    1
    34    11    32    1
    35    12    33    1
    36    13    34    1
    37    18    35    1
    38    20    36    1
    39    21    37    1
    40    22    38    1
    41    23    39    1
    42    26    40    1
@<TRIPOS>MOLECULE
../data/bude_mols_rdkit_confs2/molecule_15.pdb
 40 42 0 0 0
SMALL
GASTEIGER

@<TRIPOS>ATOM
      1  O1         1.0820   -0.0410   -3.4530 O.2     1  UNL1       -0.2698
      2  C1         0.9910   -0.2090   -2.1910 C.2     1  UNL1        0.2494
      3  N1         1.7530    0.6550   -1.3530 N.am    1  UNL1       -0.2664
      4  C2         2.5690    1.6520   -1.9530 C.ar    1  UNL1        0.1251
      5  C3         3.2950    2.4800   -1.1370 C.ar    1  UNL1       -0.0215
      6  C4         4.0950    3.4570   -1.7070 C.ar    1  UNL1       -0.0571
      7  C5         4.1570    3.5900   -3.0740 C.ar    1  UNL1       -0.0435
      8  C6         3.4120    2.7360   -3.8420 C.ar    1  UNL1        0.0297
      9  N2         2.6430    1.7970   -3.2780 N.ar    1  UNL1       -0.2401
     10  C7         0.1360   -1.2480   -1.6390 C.ar    1  UNL1        0.0389
     11  C8        -0.6800   -1.9570   -2.5220 C.ar    1  UNL1       -0.0495
     12  C9        -1.5170   -2.9580   -2.0820 C.ar    1  UNL1       -0.0592
     13  C10       -1.5310   -3.2470   -0.7340 C.ar    1  UNL1       -0.0350
     14  C11       -0.7370   -2.5660    0.1730 C.ar    1  UNL1        0.1092
     15  S1        -0.8290   -3.0220    1.8600 S.O2    1  UNL1        0.0724
     16  O2        -1.1260   -4.5130    1.8720 O.2     1  UNL1       -0.1500
     17  O3         0.5010   -2.9160    2.5340 O.2     1  UNL1       -0.1500
     18  N3        -2.0830   -2.1860    2.5880 N.pl3   1  UNL1       -0.2135
     19  C12       -2.2560   -0.8000    2.7540 C.ar    1  UNL1        0.0831
     20  C13       -1.2000    0.0840    2.6470 C.ar    1  UNL1       -0.0365
     21  C14       -1.3210    1.4530    2.8110 C.ar    1  UNL1       -0.0598
     22  C15       -2.5680    1.9610    3.0990 C.ar    1  UNL1       -0.0589
     23  C16       -3.6570    1.1210    3.2170 C.ar    1  UNL1       -0.0246
     24  C17       -3.4830   -0.2290    3.0450 C.ar    1  UNL1        0.1456
     25  F1        -4.5170   -1.1080    3.1480 F       1  UNL1       -0.2035
     26  C18        0.0810   -1.5780   -0.3080 C.ar    1  UNL1       -0.0230
     27 H           1.7149    0.5629   -0.3736 H       1  UNL1        0.1566
     28 H           3.2464    2.3770   -0.1113 H       1  UNL1        0.0652
     29 H           4.6462    4.0870   -1.1035 H       1  UNL1        0.0619
     30 H           4.7493    4.3142   -3.5095 H       1  UNL1        0.0633
     31 H           3.4438    2.8174   -4.8703 H       1  UNL1        0.0830
     32 H          -0.6555   -1.7258   -3.5275 H       1  UNL1        0.0625
     33 H          -2.1166   -3.4770   -2.7424 H       1  UNL1        0.0618
     34 H          -2.1533   -3.9950   -0.3900 H       1  UNL1        0.0637
     35 H          -2.8052   -2.7464    2.9535 H       1  UNL1        0.1738
     36 H          -0.2660   -0.2988    2.4322 H       1  UNL1        0.0637
     37 H          -0.5017    2.0740    2.7202 H       1  UNL1        0.0618
     38 H          -2.6894    2.9777    3.2276 H       1  UNL1        0.0618
     39 H          -4.5909    1.5039    3.4320 H       1  UNL1        0.0647
     40 H           0.6790   -1.0619    0.3562 H       1  UNL1        0.0645
@<TRIPOS>BOND
     1     1     2    2
     2     2     3   am
     3     2    10    1
     4     3     4    1
     5     4     5   ar
     6     4     9   ar
     7     5     6   ar
     8     6     7   ar
     9     7     8   ar
    10     8     9   ar
    11    10    11   ar
    12    10    26   ar
    13    11    12   ar
    14    12    13   ar
    15    13    14   ar
    16    14    15    1
    17    14    26   ar
    18    15    16    2
    19    15    17    2
    20    15    18    1
    21    18    19    1
    22    19    20   ar
    23    19    24   ar
    24    20    21   ar
    25    21    22   ar
    26    22    23   ar
    27    23    24   ar
    28    24    25    1
    29     3    27    1
    30     5    28    1
    31     6    29    1
    32     7    30    1
    33     8    31    1
    34    11    32    1
    35    12    33    1
    36    13    34    1
    37    18    35    1
    38    20    36    1
    39    21    37    1
    40    22    38    1
    41    23    39    1
    42    26    40    1
@<TRIPOS>MOLECULE
../data/bude_mols_rdkit_confs2/molecule_15.pdb
 40 42 0 0 0
SMALL
GASTEIGER

@<TRIPOS>ATOM
      1  O1        -3.4670    0.8030   -0.2640 O.2     1  UNL1       -0.2698
      2  C1        -2.2340    0.6000   -0.3150 C.2     1  UNL1        0.2494
      3  N1        -1.7300   -0.5910   -0.8800 N.am    1  UNL1       -0.2664
      4  C2        -2.4850   -1.6560   -1.4240 C.ar    1  UNL1        0.1251
      5  C3        -3.8450   -1.7370   -1.5070 C.ar    1  UNL1       -0.0215
      6  C4        -4.4860   -2.8490   -2.0620 C.ar    1  UNL1       -0.0571
      7  C5        -3.7340   -3.8730   -2.5300 C.ar    1  UNL1       -0.0435
      8  C6        -2.3750   -3.7880   -2.4450 C.ar    1  UNL1        0.0297
      9  N2        -1.7940   -2.7040   -1.9060 N.ar    1  UNL1       -0.2401
     10  C7        -1.3510    1.6200    0.2210 C.ar    1  UNL1        0.0389
     11  C8        -1.8720    2.5860    1.0790 C.ar    1  UNL1       -0.0495
     12  C9        -1.1280    3.5910    1.6460 C.ar    1  UNL1       -0.0592
     13  C10        0.2340    3.6580    1.3500 C.ar    1  UNL1       -0.0350
     14  C11        0.7890    2.7180    0.5030 C.ar    1  UNL1        0.1092
     15  S1         2.4990    2.8200    0.1540 S.O2    1  UNL1        0.0724
     16  O2         2.9450    4.2430    0.2780 O.2     1  UNL1       -0.1500
     17  O3         2.8000    2.4100   -1.2660 O.2     1  UNL1       -0.1500
     18  N3         3.3910    1.8620    1.2810 N.pl3   1  UNL1       -0.2135
     19  C12        3.2220    0.4670    1.3880 C.ar    1  UNL1        0.0831
     20  C13        2.8380   -0.2830    0.3140 C.ar    1  UNL1       -0.0365
     21  C14        2.6790   -1.6460    0.4140 C.ar    1  UNL1       -0.0598
     22  C15        2.9190   -2.2630    1.6450 C.ar    1  UNL1       -0.0589
     23  C16        3.3040   -1.5160    2.7240 C.ar    1  UNL1       -0.0246
     24  C17        3.4580   -0.1580    2.6100 C.ar    1  UNL1        0.1456
     25  F1         3.8450    0.5360    3.7060 F       1  UNL1       -0.2035
     26  C18       -0.0030    1.7290   -0.0390 C.ar    1  UNL1       -0.0230
     27 H          -0.7507   -0.6909   -0.8973 H       1  UNL1        0.1566
     28 H          -4.4165   -0.9553   -1.1500 H       1  UNL1        0.0652
     29 H          -5.5159   -2.8885   -2.1140 H       1  UNL1        0.0619
     30 H          -4.1819   -4.7051   -2.9447 H       1  UNL1        0.0633
     31 H          -1.7898   -4.5617   -2.7972 H       1  UNL1        0.0830
     32 H          -2.8787    2.5436    1.3020 H       1  UNL1        0.0625
     33 H          -1.5659    4.2808    2.2764 H       1  UNL1        0.0618
     34 H           0.8206    4.4018    1.7594 H       1  UNL1        0.0637
     35 H           4.0418    2.3071    1.8706 H       1  UNL1        0.1738
     36 H           2.6635    0.1815   -0.5909 H       1  UNL1        0.0637
     37 H           2.3879   -2.2026   -0.4049 H       1  UNL1        0.0618
     38 H           2.8055   -3.2843    1.7399 H       1  UNL1        0.0618
     39 H           3.4798   -1.9774    3.6302 H       1  UNL1        0.0647
     40 H           0.4342    1.0382   -0.6688 H       1  UNL1        0.0645
@<TRIPOS>BOND
     1     1     2    2
     2     2     3   am
     3     2    10    1
     4     3     4    1
     5     4     5   ar
     6     4     9   ar
     7     5     6   ar
     8     6     7   ar
     9     7     8   ar
    10     8     9   ar
    11    10    11   ar
    12    10    26   ar
    13    11    12   ar
    14    12    13   ar
    15    13    14   ar
    16    14    15    1
    17    14    26   ar
    18    15    16    2
    19    15    17    2
    20    15    18    1
    21    18    19    1
    22    19    20   ar
    23    19    24   ar
    24    20    21   ar
    25    21    22   ar
    26    22    23   ar
    27    23    24   ar
    28    24    25    1
    29     3    27    1
    30     5    28    1
    31     6    29    1
    32     7    30    1
    33     8    31    1
    34    11    32    1
    35    12    33    1
    36    13    34    1
    37    18    35    1
    38    20    36    1
    39    21    37    1
    40    22    38    1
    41    23    39    1
    42    26    40    1
@<TRIPOS>MOLECULE
../data/bude_mols_rdkit_confs2/molecule_15.pdb
 40 42 0 0 0
SMALL
GASTEIGER

@<TRIPOS>ATOM
      1  O1         3.5150    0.6350    1.9700 O.2     1  UNL1       -0.2698
      2  C1         2.7550    0.5250    0.9770 C.2     1  UNL1        0.2494
      3  N1         3.3550    0.0560   -0.2320 N.am    1  UNL1       -0.2664
      4  C2         4.7370   -0.2720   -0.3160 C.ar    1  UNL1        0.1251
      5  C3         5.2150   -0.7160   -1.5280 C.ar    1  UNL1       -0.0215
      6  C4         6.5400   -1.0420   -1.6550 C.ar    1  UNL1       -0.0571
      7  C5         7.3800   -0.9230   -0.5660 C.ar    1  UNL1       -0.0435
      8  C6         6.8830   -0.4740    0.6500 C.ar    1  UNL1        0.0297
      9  N2         5.5740   -0.1710    0.7020 N.ar    1  UNL1       -0.2401
     10  C7         1.3480    0.8690    1.0990 C.ar    1  UNL1        0.0389
     11  C8         0.8850    1.3160    2.3280 C.ar    1  UNL1       -0.0495
     12  C9        -0.4120    1.6660    2.5570 C.ar    1  UNL1       -0.0592
     13  C10       -1.2970    1.5630    1.5020 C.ar    1  UNL1       -0.0350
     14  C11       -0.8820    1.1240    0.2670 C.ar    1  UNL1        0.1092
     15  S1        -2.0840    1.0300   -1.0050 S.O2    1  UNL1        0.0724
     16  O2        -3.0610    2.1340   -0.7410 O.2     1  UNL1       -0.1500
     17  O3        -1.4570    1.3480   -2.3490 O.2     1  UNL1       -0.1500
     18  N3        -2.8780   -0.4590   -1.0510 N.pl3   1  UNL1       -0.2135
     19  C12       -4.2520   -0.5920   -0.7580 C.ar    1  UNL1        0.0831
     20  C13       -5.2300    0.3240   -1.0730 C.ar    1  UNL1       -0.0365
     21  C14       -6.5750    0.1290   -0.7700 C.ar    1  UNL1       -0.0598
     22  C15       -6.9390   -1.0280   -0.1300 C.ar    1  UNL1       -0.0589
     23  C16       -5.9450   -1.9480    0.1850 C.ar    1  UNL1       -0.0246
     24  C17       -4.6240   -1.7680   -0.1070 C.ar    1  UNL1        0.1456
     25  F1        -3.7350   -2.7180    0.2390 F       1  UNL1       -0.2035
     26  C18        0.4400    0.7810    0.0800 C.ar    1  UNL1       -0.0230
     27 H           2.7931   -0.0436   -1.0342 H       1  UNL1        0.1566
     28 H           4.5793   -0.8029   -2.3363 H       1  UNL1        0.0652
     29 H           6.9079   -1.3747   -2.5600 H       1  UNL1        0.0619
     30 H           8.3784   -1.1681   -0.6559 H       1  UNL1        0.0633
     31 H           7.4916   -0.3770    1.4778 H       1  UNL1        0.0830
     32 H           1.5567    1.3871    3.1082 H       1  UNL1        0.0625
     33 H          -0.7214    1.9959    3.4846 H       1  UNL1        0.0618
     34 H          -2.2865    1.8199    1.6430 H       1  UNL1        0.0637
     35 H          -2.3639   -1.2636   -1.2909 H       1  UNL1        0.1738
     36 H          -4.9542    1.1938   -1.5551 H       1  UNL1        0.0637
     37 H          -7.2812    0.8384   -1.0211 H       1  UNL1        0.0618
     38 H          -7.9254   -1.2112    0.1117 H       1  UNL1        0.0618
     39 H          -6.2222   -2.8171    0.6675 H       1  UNL1        0.0647
     40 H           0.7507    0.4513   -0.8472 H       1  UNL1        0.0645
@<TRIPOS>BOND
     1     1     2    2
     2     2     3   am
     3     2    10    1
     4     3     4    1
     5     4     5   ar
     6     4     9   ar
     7     5     6   ar
     8     6     7   ar
     9     7     8   ar
    10     8     9   ar
    11    10    11   ar
    12    10    26   ar
    13    11    12   ar
    14    12    13   ar
    15    13    14   ar
    16    14    15    1
    17    14    26   ar
    18    15    16    2
    19    15    17    2
    20    15    18    1
    21    18    19    1
    22    19    20   ar
    23    19    24   ar
    24    20    21   ar
    25    21    22   ar
    26    22    23   ar
    27    23    24   ar
    28    24    25    1
    29     3    27    1
    30     5    28    1
    31     6    29    1
    32     7    30    1
    33     8    31    1
    34    11    32    1
    35    12    33    1
    36    13    34    1
    37    18    35    1
    38    20    36    1
    39    21    37    1
    40    22    38    1
    41    23    39    1
    42    26    40    1
@<TRIPOS>MOLECULE
../data/bude_mols_rdkit_confs2/molecule_15.pdb
 40 42 0 0 0
SMALL
GASTEIGER

@<TRIPOS>ATOM
      1  O1        -2.5690    1.0930    0.4620 O.2     1  UNL1       -0.2698
      2  C1        -2.2670   -0.1320    0.3530 C.2     1  UNL1        0.2494
      3  N1        -3.2840   -0.9970   -0.1100 N.am    1  UNL1       -0.2664
      4  C2        -4.5840   -0.4640   -0.4300 C.ar    1  UNL1        0.1251
      5  C3        -5.5870   -1.2780   -0.8800 C.ar    1  UNL1       -0.0215
      6  C4        -6.8200   -0.7180   -1.1730 C.ar    1  UNL1       -0.0571
      7  C5        -7.0520    0.6490   -1.0180 C.ar    1  UNL1       -0.0435
      8  C6        -6.0150    1.4130   -0.5650 C.ar    1  UNL1        0.0297
      9  N2        -4.8330    0.8500   -0.2880 N.ar    1  UNL1       -0.2401
     10  C7        -0.9290   -0.5990    0.6950 C.ar    1  UNL1        0.0389
     11  C8        -0.5320   -1.9010    0.6020 C.ar    1  UNL1       -0.0495
     12  C9         0.7520   -2.3020    0.9380 C.ar    1  UNL1       -0.0592
     13  C10        1.7030   -1.3850    1.3890 C.ar    1  UNL1       -0.0350
     14  C11        1.3070   -0.0750    1.4830 C.ar    1  UNL1        0.1092
     15  S1         2.4430    1.1210    2.0310 S.O2    1  UNL1        0.0724
     16  O2         3.4260    0.4260    2.9640 O.2     1  UNL1       -0.1500
     17  O3         1.6970    2.1790    2.8410 O.2     1  UNL1       -0.1500
     18  N3         3.2290    1.9170    0.7420 N.pl3   1  UNL1       -0.2135
     19  C12        4.0430    1.2430   -0.1900 C.ar    1  UNL1        0.0831
     20  C13        4.6460    0.0550    0.1260 C.ar    1  UNL1       -0.0365
     21  C14        5.4620   -0.6110   -0.7900 C.ar    1  UNL1       -0.0598
     22  C15        5.6870   -0.0890   -2.0460 C.ar    1  UNL1       -0.0589
     23  C16        5.0740    1.1180   -2.3630 C.ar    1  UNL1       -0.0246
     24  C17        4.2690    1.7720   -1.4590 C.ar    1  UNL1        0.1456
     25  F1         3.7060    2.9330   -1.8240 F       1  UNL1       -0.2035
     26  C18        0.0050    0.3130    1.1390 C.ar    1  UNL1       -0.0230
     27 H          -3.1052   -1.9596   -0.2135 H       1  UNL1        0.1566
     28 H          -5.4282   -2.2907   -0.9991 H       1  UNL1        0.0652
     29 H          -7.5826   -1.3246   -1.5129 H       1  UNL1        0.0619
     30 H          -7.9703    1.0659   -1.2369 H       1  UNL1        0.0633
     31 H          -6.1433    2.4288   -0.4357 H       1  UNL1        0.0830
     32 H          -1.2073   -2.6081    0.2719 H       1  UNL1        0.0625
     33 H           1.0097   -3.2977    0.8530 H       1  UNL1        0.0618
     34 H           2.6598   -1.6790    1.6401 H       1  UNL1        0.0637
     35 H           3.1084    2.8893    0.6454 H       1  UNL1        0.1738
     36 H           4.4941   -0.3563    1.0602 H       1  UNL1        0.0637
     37 H           5.9024   -1.5055   -0.5236 H       1  UNL1        0.0618
     38 H           6.2894   -0.5771   -2.7271 H       1  UNL1        0.0618
     39 H           5.2260    1.5321   -3.2960 H       1  UNL1        0.0647
     40 H          -0.2615    1.3067    1.2201 H       1  UNL1        0.0645
@<TRIPOS>BOND
     1     1     2    2
     2     2     3   am
     3     2    10    1
     4     3     4    1
     5     4     5   ar
     6     4     9   ar
     7     5     6   ar
     8     6     7   ar
     9     7     8   ar
    10     8     9   ar
    11    10    11   ar
    12    10    26   ar
    13    11    12   ar
    14    12    13   ar
    15    13    14   ar
    16    14    15    1
    17    14    26   ar
    18    15    16    2
    19    15    17    2
    20    15    18    1
    21    18    19    1
    22    19    20   ar
    23    19    24   ar
    24    20    21   ar
    25    21    22   ar
    26    22    23   ar
    27    23    24   ar
    28    24    25    1
    29     3    27    1
    30     5    28    1
    31     6    29    1
    32     7    30    1
    33     8    31    1
    34    11    32    1
    35    12    33    1
    36    13    34    1
    37    18    35    1
    38    20    36    1
    39    21    37    1
    40    22    38    1
    41    23    39    1
    42    26    40    1
@<TRIPOS>MOLECULE
../data/bude_mols_rdkit_confs2/molecule_15.pdb
 40 42 0 0 0
SMALL
GASTEIGER

@<TRIPOS>ATOM
      1  O1         0.6710   -0.7930    1.6710 O.2     1  UNL1       -0.2698
      2  C1         1.5000   -0.7670    0.7260 C.2     1  UNL1        0.2494
      3  N1         2.8600   -0.6080    1.0330 N.am    1  UNL1       -0.2664
      4  C2         3.4430   -0.4660    2.3130 C.ar    1  UNL1        0.1251
      5  C3         2.7870   -0.4580    3.5060 C.ar    1  UNL1       -0.0215
      6  C4         3.4890   -0.3080    4.7030 C.ar    1  UNL1       -0.0571
      7  C5         4.8540   -0.1670    4.6700 C.ar    1  UNL1       -0.0435
      8  C6         5.5020   -0.1760    3.4730 C.ar    1  UNL1        0.0297
      9  N2         4.7950   -0.3210    2.3700 N.ar    1  UNL1       -0.2401
     10  C7         1.0100   -0.9050   -0.6530 C.ar    1  UNL1        0.0389
     11  C8         1.7980   -0.7680   -1.7670 C.ar    1  UNL1       -0.0495
     12  C9         1.2830   -0.9110   -3.0410 C.ar    1  UNL1       -0.0592
     13  C10       -0.0400   -1.1960   -3.2410 C.ar    1  UNL1       -0.0350
     14  C11       -0.8550   -1.3380   -2.1390 C.ar    1  UNL1        0.1092
     15  S1        -2.5440   -1.7070   -2.3430 S.O2    1  UNL1        0.0724
     16  O2        -2.9890   -2.4530   -1.1150 O.2     1  UNL1       -0.1500
     17  O3        -2.7480   -2.6280   -3.5230 O.2     1  UNL1       -0.1500
     18  N3        -3.4300   -0.2630   -2.5760 N.pl3   1  UNL1       -0.2135
     19  C12       -3.5390    0.7970   -1.6520 C.ar    1  UNL1        0.0831
     20  C13       -3.3330    0.6870   -0.2940 C.ar    1  UNL1       -0.0365
     21  C14       -3.4660    1.7730    0.5500 C.ar    1  UNL1       -0.0598
     22  C15       -3.8110    3.0130    0.0630 C.ar    1  UNL1       -0.0589
     23  C16       -4.0190    3.1380   -1.2880 C.ar    1  UNL1       -0.0246
     24  C17       -3.8830    2.0480   -2.1140 C.ar    1  UNL1        0.1456
     25  F1        -4.1050    2.2470   -3.4410 F       1  UNL1       -0.2035
     26  C18       -0.3390   -1.1960   -0.8810 C.ar    1  UNL1       -0.0230
     27 H           3.4800   -0.5937    0.2684 H       1  UNL1        0.1566
     28 H           1.7606   -0.5639    3.5254 H       1  UNL1        0.0652
     29 H           2.9865   -0.3031    5.6044 H       1  UNL1        0.0619
     30 H           5.3857   -0.0549    5.5474 H       1  UNL1        0.0633
     31 H           6.5278   -0.0712    3.4298 H       1  UNL1        0.0830
     32 H           2.8006   -0.5527   -1.6508 H       1  UNL1        0.0625
     33 H           1.9069   -0.8010   -3.8556 H       1  UNL1        0.0618
     34 H          -0.4189   -1.3022   -4.1951 H       1  UNL1        0.0637
     35 H          -3.9066   -0.1626   -3.4316 H       1  UNL1        0.1738
     36 H          -3.0728   -0.2295    0.1027 H       1  UNL1        0.0637
     37 H          -3.3040    1.6522    1.5620 H       1  UNL1        0.0618
     38 H          -3.9102    3.8237    0.6939 H       1  UNL1        0.0618
     39 H          -4.2786    4.0544   -1.6852 H       1  UNL1        0.0647
     40 H          -0.9676   -1.3076   -0.0702 H       1  UNL1        0.0645
@<TRIPOS>BOND
     1     1     2    2
     2     2     3   am
     3     2    10    1
     4     3     4    1
     5     4     5   ar
     6     4     9   ar
     7     5     6   ar
     8     6     7   ar
     9     7     8   ar
    10     8     9   ar
    11    10    11   ar
    12    10    26   ar
    13    11    12   ar
    14    12    13   ar
    15    13    14   ar
    16    14    15    1
    17    14    26   ar
    18    15    16    2
    19    15    17    2
    20    15    18    1
    21    18    19    1
    22    19    20   ar
    23    19    24   ar
    24    20    21   ar
    25    21    22   ar
    26    22    23   ar
    27    23    24   ar
    28    24    25    1
    29     3    27    1
    30     5    28    1
    31     6    29    1
    32     7    30    1
    33     8    31    1
    34    11    32    1
    35    12    33    1
    36    13    34    1
    37    18    35    1
    38    20    36    1
    39    21    37    1
    40    22    38    1
    41    23    39    1
    42    26    40    1
