@<TRIPOS>MOLECULE
../data/bude_mols_rdkit_confs2/molecule_80.pdb
 48 51 0 0 0
SMALL
GASTEIGER

@<TRIPOS>ATOM
      1  O1         7.9560    0.7680    0.3570 O.2     1  UNL1       -0.2679
      2  C1         6.9700    0.0930   -0.0720 C.2     1  UNL1        0.2706
      3  N1         7.2500   -1.0400   -0.8600 N.am    1  UNL1       -0.1481
      4  F1         8.5580   -1.3390   -1.1120 F       1  UNL1       -0.1090
      5  C2         5.6330    0.5260    0.2720 C.ar    1  UNL1        0.0395
      6  C3         5.4740    1.6900    0.9920 C.ar    1  UNL1       -0.0495
      7  C4         4.2130    2.1300    1.3340 C.ar    1  UNL1       -0.0605
      8  C5         3.1230    1.3730    0.9370 C.ar    1  UNL1       -0.0540
      9  C6         3.2380    0.2040    0.2170 C.ar    1  UNL1       -0.0172
     10  C7         2.0510   -0.5700   -0.1860 C.ar    1  UNL1       -0.0176
     11  C8         2.0150   -1.3190   -1.3460 C.ar    1  UNL1       -0.0540
     12  C9         0.8810   -2.0170   -1.6700 C.ar    1  UNL1       -0.0609
     13  C10       -0.2500   -1.9770   -0.8280 C.ar    1  UNL1       -0.0582
     14  C11       -0.2400   -1.2450    0.3230 C.ar    1  UNL1       -0.0409
     15  C12       -1.3350   -1.1090    1.2800 C.3     1  UNL1        0.0168
     16  C13       -2.2020    0.0410    1.1270 C.ar    1  UNL1        0.0693
     17  N2        -1.9610    1.1690    1.8610 N.ar    1  UNL1       -0.1753
     18  N3        -2.6780    2.2720    1.7390 N.ar    1  UNL1       -0.2427
     19  C14       -3.7120    2.3410    0.8580 C.ar    1  UNL1        0.2682
     20  O2        -4.3680    3.4260    0.7790 O.2     1  UNL1       -0.2661
     21  C15       -4.0140    1.2480    0.0870 C.ar    1  UNL1        0.0232
     22  C16       -3.2310    0.0940    0.2460 C.ar    1  UNL1       -0.0158
     23  C17       -3.6190   -1.0550   -0.5630 C.3     1  UNL1       -0.0255
     24  C18       -5.1290   -1.2040   -0.4930 C.3     1  UNL1       -0.0487
     25  C19       -5.8820    0.0020   -0.9120 C.3     1  UNL1       -0.0486
     26  C20       -5.1280    1.2900   -0.8910 C.3     1  UNL1       -0.0222
     27  C21        0.9440   -0.5510    0.6060 C.ar    1  UNL1       -0.0505
     28  C22        4.5280   -0.2040   -0.1070 C.ar    1  UNL1       -0.0418
     29 H           6.5240   -1.5999   -1.2186 H       1  UNL1        0.1882
     30 H           6.3028    2.2351    1.2766 H       1  UNL1        0.0625
     31 H           4.0844    3.0012    1.8721 H       1  UNL1        0.0618
     32 H           2.1785    1.7007    1.1931 H       1  UNL1        0.0624
     33 H           2.8390   -1.3529   -1.9664 H       1  UNL1        0.0624
     34 H           0.8543   -2.5763   -2.5369 H       1  UNL1        0.0618
     35 H          -1.0961   -2.5085   -1.0862 H       1  UNL1        0.0620
     36 H          -0.9046   -1.0611    2.2585 H       1  UNL1        0.0377
     37 H          -1.9640   -1.9568    1.1054 H       1  UNL1        0.0377
     38 H          -2.4606    3.0556    2.2940 H       1  UNL1        0.1921
     39 H          -3.1508   -1.9389   -0.1830 H       1  UNL1        0.0314
     40 H          -3.3109   -0.9107   -1.5775 H       1  UNL1        0.0314
     41 H          -5.3966   -1.4315    0.5177 H       1  UNL1        0.0268
     42 H          -5.3918   -1.9823   -1.1786 H       1  UNL1        0.0268
     43 H          -6.7229    0.1053   -0.2584 H       1  UNL1        0.0269
     44 H          -6.1389   -0.1628   -1.9376 H       1  UNL1        0.0269
     45 H          -4.7286    1.4757   -1.8661 H       1  UNL1        0.0315
     46 H          -5.8011    2.0700   -0.6020 H       1  UNL1        0.0315
     47 H           0.9790    0.0109    1.4709 H       1  UNL1        0.0626
     48 H           4.6603   -1.0750   -0.6445 H       1  UNL1        0.0631
@<TRIPOS>BOND
     1     1     2    2
     2     2     3   am
     3     2     5    1
     4     3     4    1
     5     5     6   ar
     6     5    28   ar
     7     6     7   ar
     8     7     8   ar
     9     8     9   ar
    10     9    10    1
    11     9    28   ar
    12    10    11   ar
    13    10    27   ar
    14    11    12   ar
    15    12    13   ar
    16    13    14   ar
    17    14    15    1
    18    14    27   ar
    19    15    16    1
    20    16    17   ar
    21    16    22   ar
    22    17    18   ar
    23    18    19   ar
    24    19    20    2
    25    19    21   ar
    26    21    22   ar
    27    21    26    1
    28    22    23    1
    29    23    24    1
    30    24    25    1
    31    25    26    1
    32     3    29    1
    33     6    30    1
    34     7    31    1
    35     8    32    1
    36    11    33    1
    37    12    34    1
    38    13    35    1
    39    15    36    1
    40    15    37    1
    41    18    38    1
    42    23    39    1
    43    23    40    1
    44    24    41    1
    45    24    42    1
    46    25    43    1
    47    25    44    1
    48    26    45    1
    49    26    46    1
    50    27    47    1
    51    28    48    1
@<TRIPOS>MOLECULE
../data/bude_mols_rdkit_confs2/molecule_80.pdb
 48 51 0 0 0
SMALL
GASTEIGER

@<TRIPOS>ATOM
      1  O1         5.0320    2.9600    1.1320 O.2     1  UNL1       -0.2679
      2  C1         5.8590    2.1840    0.5630 C.2     1  UNL1        0.2706
      3  N1         7.1830    2.6640    0.4160 N.am    1  UNL1       -0.1481
      4  F1         7.5250    3.9130    0.8690 F       1  UNL1       -0.1090
      5  C2         5.3960    0.8770    0.1110 C.ar    1  UNL1        0.0395
      6  C3         6.2590    0.0620   -0.5550 C.ar    1  UNL1       -0.0495
      7  C4         5.8320   -1.1940   -0.9850 C.ar    1  UNL1       -0.0605
      8  C5         4.5310   -1.5680   -0.7130 C.ar    1  UNL1       -0.0540
      9  C6         3.6350   -0.7710   -0.0440 C.ar    1  UNL1       -0.0172
     10  C7         2.2750   -1.2110    0.2370 C.ar    1  UNL1       -0.0176
     11  C8         1.9410   -2.5200    0.4770 C.ar    1  UNL1       -0.0540
     12  C9         0.6960   -2.9780    0.7610 C.ar    1  UNL1       -0.0609
     13  C10       -0.3330   -2.0310    0.8140 C.ar    1  UNL1       -0.0582
     14  C11       -0.0570   -0.7100    0.5820 C.ar    1  UNL1       -0.0409
     15  C12       -1.1480    0.2930    0.6710 C.3     1  UNL1        0.0168
     16  C13       -2.2230   -0.1160   -0.2300 C.ar    1  UNL1        0.0693
     17  N2        -1.9180   -0.8190   -1.3620 N.ar    1  UNL1       -0.1753
     18  N3        -2.8900   -1.2500   -2.1620 N.ar    1  UNL1       -0.2427
     19  C14       -4.2050   -1.0110   -1.8910 C.ar    1  UNL1        0.2682
     20  O2        -5.1260   -1.4150   -2.6410 O.2     1  UNL1       -0.2661
     21  C15       -4.5450   -0.3060   -0.7640 C.ar    1  UNL1        0.0232
     22  C16       -3.5420    0.1400    0.0660 C.ar    1  UNL1       -0.0158
     23  C17       -3.9250    0.9040    1.2450 C.3     1  UNL1       -0.0255
     24  C18       -4.8760    2.0070    0.8130 C.3     1  UNL1       -0.0487
     25  C19       -5.9260    1.5450   -0.1330 C.3     1  UNL1       -0.0486
     26  C20       -5.9380    0.0380   -0.3620 C.3     1  UNL1       -0.0222
     27  C21        1.2330   -0.2940    0.2940 C.ar    1  UNL1       -0.0505
     28  C22        4.0850    0.4780    0.3740 C.ar    1  UNL1       -0.0418
     29 H           7.8632    2.0972   -0.0145 H       1  UNL1        0.1882
     30 H           7.2255    0.3723   -0.7410 H       1  UNL1        0.0625
     31 H           6.4706   -1.8263   -1.4924 H       1  UNL1        0.0618
     32 H           4.2146   -2.4977   -1.0300 H       1  UNL1        0.0624
     33 H           2.7021   -3.2158    0.4381 H       1  UNL1        0.0624
     34 H           0.5158   -3.9799    0.9304 H       1  UNL1        0.0618
     35 H          -1.2981   -2.3277    1.0275 H       1  UNL1        0.0620
     36 H          -0.7795    1.2548    0.3812 H       1  UNL1        0.0377
     37 H          -1.5121    0.3530    1.6754 H       1  UNL1        0.0377
     38 H          -2.6531   -1.7559   -2.9727 H       1  UNL1        0.1921
     39 H          -3.0548    1.3332    1.6960 H       1  UNL1        0.0314
     40 H          -4.4025    0.2651    1.9582 H       1  UNL1        0.0314
     41 H          -4.3070    2.7784    0.3376 H       1  UNL1        0.0268
     42 H          -5.3751    2.3560    1.6928 H       1  UNL1        0.0268
     43 H          -5.7652    2.0267   -1.0748 H       1  UNL1        0.0269
     44 H          -6.8689    1.7980    0.3050 H       1  UNL1        0.0269
     45 H          -6.2071   -0.4762    0.5369 H       1  UNL1        0.0315
     46 H          -6.6517   -0.2482   -1.1060 H       1  UNL1        0.0315
     47 H           1.4213    0.7057    0.1203 H       1  UNL1        0.0626
     48 H           3.4467    1.1114    0.8803 H       1  UNL1        0.0631
@<TRIPOS>BOND
     1     1     2    2
     2     2     3   am
     3     2     5    1
     4     3     4    1
     5     5     6   ar
     6     5    28   ar
     7     6     7   ar
     8     7     8   ar
     9     8     9   ar
    10     9    10    1
    11     9    28   ar
    12    10    11   ar
    13    10    27   ar
    14    11    12   ar
    15    12    13   ar
    16    13    14   ar
    17    14    15    1
    18    14    27   ar
    19    15    16    1
    20    16    17   ar
    21    16    22   ar
    22    17    18   ar
    23    18    19   ar
    24    19    20    2
    25    19    21   ar
    26    21    22   ar
    27    21    26    1
    28    22    23    1
    29    23    24    1
    30    24    25    1
    31    25    26    1
    32     3    29    1
    33     6    30    1
    34     7    31    1
    35     8    32    1
    36    11    33    1
    37    12    34    1
    38    13    35    1
    39    15    36    1
    40    15    37    1
    41    18    38    1
    42    23    39    1
    43    23    40    1
    44    24    41    1
    45    24    42    1
    46    25    43    1
    47    25    44    1
    48    26    45    1
    49    26    46    1
    50    27    47    1
    51    28    48    1
@<TRIPOS>MOLECULE
../data/bude_mols_rdkit_confs2/molecule_80.pdb
 48 51 0 0 0
SMALL
GASTEIGER

@<TRIPOS>ATOM
      1  O1         7.9930   -0.7340    0.5000 O.2     1  UNL1       -0.2679
      2  C1         6.9450   -0.0220    0.5730 C.2     1  UNL1        0.2706
      3  N1         7.0130    1.2860    1.0950 N.am    1  UNL1       -0.1481
      4  F1         8.2160    1.7620    1.5150 F       1  UNL1       -0.1090
      5  C2         5.6700   -0.5520    0.1220 C.ar    1  UNL1        0.0395
      6  C3         5.6790   -1.7980   -0.4850 C.ar    1  UNL1       -0.0495
      7  C4         4.5110   -2.3410   -0.9150 C.ar    1  UNL1       -0.0605
      8  C5         3.3350   -1.6560   -0.7460 C.ar    1  UNL1       -0.0540
      9  C6         3.2700   -0.4200   -0.1530 C.ar    1  UNL1       -0.0172
     10  C7         2.0130    0.3250    0.0440 C.ar    1  UNL1       -0.0176
     11  C8         1.8490    1.1820    1.1070 C.ar    1  UNL1       -0.0540
     12  C9         0.6630    1.8620    1.2660 C.ar    1  UNL1       -0.0609
     13  C10       -0.4060    1.7070    0.3620 C.ar    1  UNL1       -0.0582
     14  C11       -0.2610    0.8610   -0.6970 C.ar    1  UNL1       -0.0409
     15  C12       -1.2900    0.5960   -1.7290 C.3     1  UNL1        0.0168
     16  C13       -2.3070   -0.3870   -1.3360 C.ar    1  UNL1        0.0693
     17  N2        -2.1000   -1.7130   -1.5240 N.ar    1  UNL1       -0.1753
     18  N3        -2.9310   -2.6480   -1.1190 N.ar    1  UNL1       -0.2427
     19  C14       -4.0610   -2.3270   -0.4790 C.ar    1  UNL1        0.2682
     20  O2        -4.8740   -3.2330   -0.0820 O.2     1  UNL1       -0.2661
     21  C15       -4.3660   -1.0150   -0.2400 C.ar    1  UNL1        0.0232
     22  C16       -3.4540   -0.0470   -0.6900 C.ar    1  UNL1       -0.0158
     23  C17       -3.8770    1.3390   -0.4680 C.3     1  UNL1       -0.0255
     24  C18       -4.1880    1.4720    1.0180 C.3     1  UNL1       -0.0487
     25  C19       -5.3600    0.5830    1.3870 C.3     1  UNL1       -0.0486
     26  C20       -5.5870   -0.5620    0.4590 C.3     1  UNL1       -0.0222
     27  C21        0.9680    0.1830   -0.8260 C.ar    1  UNL1       -0.0505
     28  C22        4.4880    0.1260    0.2860 C.ar    1  UNL1       -0.0418
     29 H           6.2045    1.8446    1.1544 H       1  UNL1        0.1882
     30 H           6.5668   -2.3093   -0.6092 H       1  UNL1        0.0625
     31 H           4.5083   -3.2680   -1.3684 H       1  UNL1        0.0618
     32 H           2.4598   -2.0893   -1.0796 H       1  UNL1        0.0624
     33 H           2.6152    1.3152    1.7854 H       1  UNL1        0.0624
     34 H           0.5541    2.5020    2.0683 H       1  UNL1        0.0618
     35 H          -1.2869    2.2268    0.4995 H       1  UNL1        0.0620
     36 H          -0.7972    0.2342   -2.6072 H       1  UNL1        0.0377
     37 H          -1.8055    1.5199   -1.8892 H       1  UNL1        0.0377
     38 H          -2.7193   -3.5944   -1.2886 H       1  UNL1        0.1921
     39 H          -4.7500    1.5550   -1.0478 H       1  UNL1        0.0314
     40 H          -3.1114    2.0259   -0.7629 H       1  UNL1        0.0314
     41 H          -4.4328    2.4900    1.2386 H       1  UNL1        0.0268
     42 H          -3.3302    1.1730    1.5834 H       1  UNL1        0.0268
     43 H          -6.2448    1.1845    1.3975 H       1  UNL1        0.0269
     44 H          -5.1297    0.1584    2.3418 H       1  UNL1        0.0269
     45 H          -5.9759   -1.3827    1.0248 H       1  UNL1        0.0315
     46 H          -6.2687   -0.2231   -0.2929 H       1  UNL1        0.0315
     47 H           1.0861   -0.4592   -1.6252 H       1  UNL1        0.0626
     48 H           4.4939    1.0529    0.7396 H       1  UNL1        0.0631
@<TRIPOS>BOND
     1     1     2    2
     2     2     3   am
     3     2     5    1
     4     3     4    1
     5     5     6   ar
     6     5    28   ar
     7     6     7   ar
     8     7     8   ar
     9     8     9   ar
    10     9    10    1
    11     9    28   ar
    12    10    11   ar
    13    10    27   ar
    14    11    12   ar
    15    12    13   ar
    16    13    14   ar
    17    14    15    1
    18    14    27   ar
    19    15    16    1
    20    16    17   ar
    21    16    22   ar
    22    17    18   ar
    23    18    19   ar
    24    19    20    2
    25    19    21   ar
    26    21    22   ar
    27    21    26    1
    28    22    23    1
    29    23    24    1
    30    24    25    1
    31    25    26    1
    32     3    29    1
    33     6    30    1
    34     7    31    1
    35     8    32    1
    36    11    33    1
    37    12    34    1
    38    13    35    1
    39    15    36    1
    40    15    37    1
    41    18    38    1
    42    23    39    1
    43    23    40    1
    44    24    41    1
    45    24    42    1
    46    25    43    1
    47    25    44    1
    48    26    45    1
    49    26    46    1
    50    27    47    1
    51    28    48    1
@<TRIPOS>MOLECULE
../data/bude_mols_rdkit_confs2/molecule_80.pdb
 48 51 0 0 0
SMALL
GASTEIGER

@<TRIPOS>ATOM
      1  O1         6.7620   -2.3970    1.1830 O.2     1  UNL1       -0.2679
      2  C1         5.6740   -2.0920    0.6050 C.2     1  UNL1        0.2706
      3  N1         5.1790   -2.9360   -0.4140 N.am    1  UNL1       -0.1481
      4  F1         5.8350   -4.0640   -0.7930 F       1  UNL1       -0.1090
      5  C2         4.9800   -0.8840    1.0170 C.ar    1  UNL1        0.0395
      6  C3         5.4570   -0.1720    2.1100 C.ar    1  UNL1       -0.0495
      7  C4         4.8010    0.9660    2.4920 C.ar    1  UNL1       -0.0605
      8  C5         3.6720    1.4210    1.8090 C.ar    1  UNL1       -0.0540
      9  C6         3.1850    0.7300    0.7250 C.ar    1  UNL1       -0.0172
     10  C7         2.0000    1.1730   -0.0260 C.ar    1  UNL1       -0.0176
     11  C8         1.7320    2.5220   -0.1370 C.ar    1  UNL1       -0.0540
     12  C9         0.6300    2.9500   -0.8360 C.ar    1  UNL1       -0.0609
     13  C10       -0.2110    2.0040   -1.4300 C.ar    1  UNL1       -0.0582
     14  C11        0.0230    0.6620   -1.3400 C.ar    1  UNL1       -0.0409
     15  C12       -0.8490   -0.4010   -1.9490 C.3     1  UNL1        0.0168
     16  C13       -1.7010   -0.9380   -0.8750 C.ar    1  UNL1        0.0693
     17  N2        -1.3360   -2.0730   -0.2180 N.ar    1  UNL1       -0.1753
     18  N3        -2.0240   -2.5890    0.7790 N.ar    1  UNL1       -0.2427
     19  C14       -3.1570   -2.0180    1.2270 C.ar    1  UNL1        0.2682
     20  O2        -3.8200   -2.5050    2.1810 O.2     1  UNL1       -0.2661
     21  C15       -3.5590   -0.8510    0.5720 C.ar    1  UNL1        0.0232
     22  C16       -2.8470   -0.2980   -0.4780 C.ar    1  UNL1       -0.0158
     23  C17       -3.3990    0.9250   -1.1200 C.3     1  UNL1       -0.0255
     24  C18       -4.8790    0.5940   -1.4030 C.3     1  UNL1       -0.0487
     25  C19       -5.6160    0.0790   -0.2310 C.3     1  UNL1       -0.0486
     26  C20       -4.7880   -0.1400    0.9990 C.3     1  UNL1       -0.0222
     27  C21        1.1580    0.2650   -0.6190 C.ar    1  UNL1       -0.0505
     28  C22        3.8580   -0.4230    0.3460 C.ar    1  UNL1       -0.0418
     29 H           4.3348   -2.7002   -0.8623 H       1  UNL1        0.1882
     30 H           6.2910   -0.4956    2.6245 H       1  UNL1        0.0625
     31 H           5.1488    1.5002    3.3036 H       1  UNL1        0.0618
     32 H           3.1988    2.2836    2.1205 H       1  UNL1        0.0624
     33 H           2.3606    3.2103    0.3059 H       1  UNL1        0.0624
     34 H           0.4251    3.9578   -0.9218 H       1  UNL1        0.0618
     35 H          -1.0372    2.3315   -1.9546 H       1  UNL1        0.0620
     36 H          -0.2425   -1.1810   -2.3596 H       1  UNL1        0.0377
     37 H          -1.4462    0.0057   -2.7382 H       1  UNL1        0.0377
     38 H          -1.7010   -3.4142    1.2079 H       1  UNL1        0.1921
     39 H          -2.8804    1.1381   -2.0313 H       1  UNL1        0.0314
     40 H          -3.2922    1.7888   -0.4976 H       1  UNL1        0.0314
     41 H          -4.9163   -0.1458   -2.1752 H       1  UNL1        0.0268
     42 H          -5.3518    1.5111   -1.6865 H       1  UNL1        0.0268
     43 H          -6.0580   -0.8566   -0.5032 H       1  UNL1        0.0269
     44 H          -6.3317    0.8325    0.0237 H       1  UNL1        0.0269
     45 H          -4.5336    0.7997    1.4431 H       1  UNL1        0.0315
     46 H          -5.3269   -0.7110    1.7260 H       1  UNL1        0.0315
     47 H           1.3672   -0.7418   -0.5312 H       1  UNL1        0.0626
     48 H           3.5102   -0.9571   -0.4656 H       1  UNL1        0.0631
@<TRIPOS>BOND
     1     1     2    2
     2     2     3   am
     3     2     5    1
     4     3     4    1
     5     5     6   ar
     6     5    28   ar
     7     6     7   ar
     8     7     8   ar
     9     8     9   ar
    10     9    10    1
    11     9    28   ar
    12    10    11   ar
    13    10    27   ar
    14    11    12   ar
    15    12    13   ar
    16    13    14   ar
    17    14    15    1
    18    14    27   ar
    19    15    16    1
    20    16    17   ar
    21    16    22   ar
    22    17    18   ar
    23    18    19   ar
    24    19    20    2
    25    19    21   ar
    26    21    22   ar
    27    21    26    1
    28    22    23    1
    29    23    24    1
    30    24    25    1
    31    25    26    1
    32     3    29    1
    33     6    30    1
    34     7    31    1
    35     8    32    1
    36    11    33    1
    37    12    34    1
    38    13    35    1
    39    15    36    1
    40    15    37    1
    41    18    38    1
    42    23    39    1
    43    23    40    1
    44    24    41    1
    45    24    42    1
    46    25    43    1
    47    25    44    1
    48    26    45    1
    49    26    46    1
    50    27    47    1
    51    28    48    1
@<TRIPOS>MOLECULE
../data/bude_mols_rdkit_confs2/molecule_80.pdb
 48 51 0 0 0
SMALL
GASTEIGER

@<TRIPOS>ATOM
      1  O1         6.7120   -1.8240    1.5690 O.2     1  UNL1       -0.2679
      2  C1         6.8970   -0.7880    0.8460 C.2     1  UNL1        0.2706
      3  N1         8.2420   -0.3750    0.7080 N.am    1  UNL1       -0.1481
      4  F1         9.2520   -1.0610    1.3250 F       1  UNL1       -0.1090
      5  C2         5.7770   -0.1090    0.2290 C.ar    1  UNL1        0.0395
      6  C3         6.0100    0.9500   -0.6120 C.ar    1  UNL1       -0.0495
      7  C4         4.9340    1.6180   -1.1940 C.ar    1  UNL1       -0.0605
      8  C5         3.6540    1.1900   -0.9070 C.ar    1  UNL1       -0.0540
      9  C6         3.3920    0.1270   -0.0650 C.ar    1  UNL1       -0.0172
     10  C7         2.0110   -0.2400    0.1760 C.ar    1  UNL1       -0.0176
     11  C8         1.6850   -0.7810    1.4010 C.ar    1  UNL1       -0.0540
     12  C9         0.3650   -1.1450    1.6540 C.ar    1  UNL1       -0.0609
     13  C10       -0.5940   -0.9680    0.7030 C.ar    1  UNL1       -0.0582
     14  C11       -0.2950   -0.4260   -0.5380 C.ar    1  UNL1       -0.0409
     15  C12       -1.3540   -0.2660   -1.5720 C.3     1  UNL1        0.0168
     16  C13       -2.6470   -0.7630   -1.0560 C.ar    1  UNL1        0.0693
     17  N2        -3.0200   -2.0330   -1.3510 N.ar    1  UNL1       -0.1753
     18  N3        -4.1270   -2.5890   -0.9170 N.ar    1  UNL1       -0.2427
     19  C14       -4.9960   -1.9040   -0.1160 C.ar    1  UNL1        0.2682
     20  O2        -6.0590   -2.4620    0.2940 O.2     1  UNL1       -0.2661
     21  C15       -4.6830   -0.6140    0.2220 C.ar    1  UNL1        0.0232
     22  C16       -3.5000   -0.0410   -0.2530 C.ar    1  UNL1       -0.0158
     23  C17       -3.1440    1.3430    0.0710 C.3     1  UNL1       -0.0255
     24  C18       -4.2230    2.1580    0.7040 C.3     1  UNL1       -0.0487
     25  C19       -5.6080    1.5980    0.5610 C.3     1  UNL1       -0.0486
     26  C20       -5.6290    0.1480    1.0760 C.3     1  UNL1       -0.0222
     27  C21        1.0020   -0.0730   -0.7730 C.ar    1  UNL1       -0.0505
     28  C22        4.4890   -0.5070    0.4920 C.ar    1  UNL1       -0.0418
     29 H           8.4543    0.4158    0.1613 H       1  UNL1        0.1882
     30 H           6.9768    1.2502   -0.8125 H       1  UNL1        0.0625
     31 H           5.0916    2.4174   -1.8274 H       1  UNL1        0.0618
     32 H           2.8587    1.6852   -1.3398 H       1  UNL1        0.0624
     33 H           2.4108   -0.9148    2.1224 H       1  UNL1        0.0624
     34 H           0.1116   -1.5516    2.5681 H       1  UNL1        0.0618
     35 H          -1.5665   -1.2439    0.9110 H       1  UNL1        0.0620
     36 H          -1.0836   -0.8230   -2.4447 H       1  UNL1        0.0377
     37 H          -1.4501    0.7711   -1.8173 H       1  UNL1        0.0377
     38 H          -4.3348   -3.5165   -1.1734 H       1  UNL1        0.1921
     39 H          -2.8547    1.8292   -0.8372 H       1  UNL1        0.0314
     40 H          -2.3614    1.2802    0.7980 H       1  UNL1        0.0314
     41 H          -4.2103    3.1300    0.2569 H       1  UNL1        0.0268
     42 H          -4.0122    2.1698    1.7530 H       1  UNL1        0.0268
     43 H          -5.8952    1.6149   -0.4696 H       1  UNL1        0.0269
     44 H          -6.2933    2.1897    1.1313 H       1  UNL1        0.0269
     45 H          -5.3146    0.1138    2.0982 H       1  UNL1        0.0315
     46 H          -6.6144   -0.2663    1.0285 H       1  UNL1        0.0315
     47 H           1.2464    0.3338   -1.6894 H       1  UNL1        0.0626
     48 H           4.3339   -1.3060    1.1265 H       1  UNL1        0.0631
@<TRIPOS>BOND
     1     1     2    2
     2     2     3   am
     3     2     5    1
     4     3     4    1
     5     5     6   ar
     6     5    28   ar
     7     6     7   ar
     8     7     8   ar
     9     8     9   ar
    10     9    10    1
    11     9    28   ar
    12    10    11   ar
    13    10    27   ar
    14    11    12   ar
    15    12    13   ar
    16    13    14   ar
    17    14    15    1
    18    14    27   ar
    19    15    16    1
    20    16    17   ar
    21    16    22   ar
    22    17    18   ar
    23    18    19   ar
    24    19    20    2
    25    19    21   ar
    26    21    22   ar
    27    21    26    1
    28    22    23    1
    29    23    24    1
    30    24    25    1
    31    25    26    1
    32     3    29    1
    33     6    30    1
    34     7    31    1
    35     8    32    1
    36    11    33    1
    37    12    34    1
    38    13    35    1
    39    15    36    1
    40    15    37    1
    41    18    38    1
    42    23    39    1
    43    23    40    1
    44    24    41    1
    45    24    42    1
    46    25    43    1
    47    25    44    1
    48    26    45    1
    49    26    46    1
    50    27    47    1
    51    28    48    1
@<TRIPOS>MOLECULE
../data/bude_mols_rdkit_confs2/molecule_80.pdb
 48 51 0 0 0
SMALL
GASTEIGER

@<TRIPOS>ATOM
      1  O1         3.4660    3.3050    0.1940 O.2     1  UNL1       -0.2679
      2  C1         4.5950    2.7490    0.3610 C.2     1  UNL1        0.2706
      3  N1         5.7460    3.5310    0.6230 N.am    1  UNL1       -0.1481
      4  F1         5.6170    4.8820    0.6910 F       1  UNL1       -0.1090
      5  C2         4.7010    1.3120    0.2830 C.ar    1  UNL1        0.0395
      6  C3         5.9110    0.6750    0.3650 C.ar    1  UNL1       -0.0495
      7  C4         5.9040   -0.7210    0.2800 C.ar    1  UNL1       -0.0605
      8  C5         4.7320   -1.4150    0.1220 C.ar    1  UNL1       -0.0540
      9  C6         3.5060   -0.7780    0.0380 C.ar    1  UNL1       -0.0172
     10  C7         2.2770   -1.5620   -0.1320 C.ar    1  UNL1       -0.0176
     11  C8         2.2820   -2.7550   -0.8330 C.ar    1  UNL1       -0.0540
     12  C9         1.1350   -3.5010   -1.0010 C.ar    1  UNL1       -0.0609
     13  C10       -0.0630   -3.0760   -0.4690 C.ar    1  UNL1       -0.0582
     14  C11       -0.0810   -1.8880    0.2320 C.ar    1  UNL1       -0.0409
     15  C12       -1.3790   -1.4540    0.7930 C.3     1  UNL1        0.0168
     16  C13       -2.1370   -0.6120   -0.1600 C.ar    1  UNL1        0.0693
     17  N2        -1.6750   -0.2940   -1.3950 N.ar    1  UNL1       -0.1753
     18  N3        -2.3740    0.4690   -2.2460 N.ar    1  UNL1       -0.2427
     19  C14       -3.5770    0.9530   -1.8960 C.ar    1  UNL1        0.2682
     20  O2        -4.2120    1.6660   -2.7110 O.2     1  UNL1       -0.2661
     21  C15       -4.0850    0.6540   -0.6500 C.ar    1  UNL1        0.0232
     22  C16       -3.3660   -0.1320    0.2270 C.ar    1  UNL1       -0.0158
     23  C17       -3.9880   -0.4020    1.5470 C.3     1  UNL1       -0.0255
     24  C18       -4.4060    0.9390    2.1110 C.3     1  UNL1       -0.0487
     25  C19       -5.2280    1.7650    1.1770 C.3     1  UNL1       -0.0486
     26  C20       -5.4070    1.1530   -0.1950 C.3     1  UNL1       -0.0222
     27  C21        1.0720   -1.1470    0.3960 C.ar    1  UNL1       -0.0505
     28  C22        3.5090    0.5920    0.1210 C.ar    1  UNL1       -0.0418
     29 H           6.6234    3.1039    0.7535 H       1  UNL1        0.1882
     30 H           6.7899    1.2025    0.4844 H       1  UNL1        0.0625
     31 H           6.7957   -1.2373    0.3371 H       1  UNL1        0.0618
     32 H           4.7650   -2.4448    0.0639 H       1  UNL1        0.0624
     33 H           3.1671   -3.0950   -1.2405 H       1  UNL1        0.0624
     34 H           1.1739   -4.3861   -1.5302 H       1  UNL1        0.0618
     35 H          -0.9239   -3.6317   -0.5917 H       1  UNL1        0.0620
     36 H          -1.1997   -0.8913    1.6853 H       1  UNL1        0.0377
     37 H          -1.9606   -2.3281    0.9993 H       1  UNL1        0.0377
     38 H          -2.0032    0.6764   -3.1341 H       1  UNL1        0.1921
     39 H          -3.2816   -0.8725    2.1986 H       1  UNL1        0.0314
     40 H          -4.8274   -1.0585    1.4508 H       1  UNL1        0.0314
     41 H          -3.5224    1.4898    2.3575 H       1  UNL1        0.0268
     42 H          -5.0191    0.7368    2.9643 H       1  UNL1        0.0268
     43 H          -4.7512    2.7159    1.0611 H       1  UNL1        0.0269
     44 H          -6.2034    1.8416    1.6101 H       1  UNL1        0.0269
     45 H          -6.1031    0.3420   -0.1430 H       1  UNL1        0.0315
     46 H          -5.7857    1.8818   -0.8809 H       1  UNL1        0.0315
     47 H           1.0316   -0.2623    0.9257 H       1  UNL1        0.0626
     48 H           2.6144    1.1032    0.0629 H       1  UNL1        0.0631
@<TRIPOS>BOND
     1     1     2    2
     2     2     3   am
     3     2     5    1
     4     3     4    1
     5     5     6   ar
     6     5    28   ar
     7     6     7   ar
     8     7     8   ar
     9     8     9   ar
    10     9    10    1
    11     9    28   ar
    12    10    11   ar
    13    10    27   ar
    14    11    12   ar
    15    12    13   ar
    16    13    14   ar
    17    14    15    1
    18    14    27   ar
    19    15    16    1
    20    16    17   ar
    21    16    22   ar
    22    17    18   ar
    23    18    19   ar
    24    19    20    2
    25    19    21   ar
    26    21    22   ar
    27    21    26    1
    28    22    23    1
    29    23    24    1
    30    24    25    1
    31    25    26    1
    32     3    29    1
    33     6    30    1
    34     7    31    1
    35     8    32    1
    36    11    33    1
    37    12    34    1
    38    13    35    1
    39    15    36    1
    40    15    37    1
    41    18    38    1
    42    23    39    1
    43    23    40    1
    44    24    41    1
    45    24    42    1
    46    25    43    1
    47    25    44    1
    48    26    45    1
    49    26    46    1
    50    27    47    1
    51    28    48    1
@<TRIPOS>MOLECULE
../data/bude_mols_rdkit_confs2/molecule_80.pdb
 48 51 0 0 0
SMALL
GASTEIGER

@<TRIPOS>ATOM
      1  O1         5.8150   -1.0780    2.3530 O.2     1  UNL1       -0.2679
      2  C1         6.1560   -1.0010    1.1260 C.2     1  UNL1        0.2706
      3  N1         7.4060   -1.5010    0.7140 N.am    1  UNL1       -0.1481
      4  F1         8.2080   -2.0560    1.6700 F       1  UNL1       -0.1090
      5  C2         5.2540   -0.4000    0.1760 C.ar    1  UNL1        0.0395
      6  C3         5.6040   -0.3160   -1.1470 C.ar    1  UNL1       -0.0495
      7  C4         4.6900    0.2750   -2.0240 C.ar    1  UNL1       -0.0605
      8  C5         3.4830    0.7540   -1.5690 C.ar    1  UNL1       -0.0540
      9  C6         3.1210    0.6740   -0.2390 C.ar    1  UNL1       -0.0172
     10  C7         1.8390    1.1780    0.2570 C.ar    1  UNL1       -0.0176
     11  C8         1.6700    1.6880    1.5270 C.ar    1  UNL1       -0.0540
     12  C9         0.4440    2.1500    1.9450 C.ar    1  UNL1       -0.0609
     13  C10       -0.6780    2.1240    1.1050 C.ar    1  UNL1       -0.0582
     14  C11       -0.5240    1.6230   -0.1500 C.ar    1  UNL1       -0.0409
     15  C12       -1.6550    1.5460   -1.1050 C.3     1  UNL1        0.0168
     16  C13       -2.2470    0.2290   -1.1770 C.ar    1  UNL1        0.0693
     17  N2        -1.8370   -0.5890   -2.1900 N.ar    1  UNL1       -0.1753
     18  N3        -2.3030   -1.8190   -2.2890 N.ar    1  UNL1       -0.2427
     19  C14       -3.1850   -2.3230   -1.4180 C.ar    1  UNL1        0.2682
     20  O2        -3.6380   -3.4950   -1.5000 O.2     1  UNL1       -0.2661
     21  C15       -3.6300   -1.5360   -0.3770 C.ar    1  UNL1        0.0232
     22  C16       -3.1430   -0.2440   -0.2730 C.ar    1  UNL1       -0.0158
     23  C17       -3.6440    0.6020    0.8040 C.3     1  UNL1       -0.0255
     24  C18       -5.1770    0.4080    0.8110 C.3     1  UNL1       -0.0487
     25  C19       -5.4600   -0.9900    1.2310 C.3     1  UNL1       -0.0486
     26  C20       -4.5840   -2.0290    0.6230 C.3     1  UNL1       -0.0222
     27  C21        0.7330    1.1540   -0.5630 C.ar    1  UNL1       -0.0505
     28  C22        4.0240    0.0920    0.6140 C.ar    1  UNL1       -0.0418
     29 H           7.6910   -1.4524   -0.2271 H       1  UNL1        0.1882
     30 H           6.5105   -0.6765   -1.4835 H       1  UNL1        0.0625
     31 H           4.9236    0.3531   -3.0262 H       1  UNL1        0.0618
     32 H           2.8295    1.1855   -2.2412 H       1  UNL1        0.0624
     33 H           2.4744    1.7235    2.1725 H       1  UNL1        0.0624
     34 H           0.3475    2.5254    2.9014 H       1  UNL1        0.0618
     35 H          -1.5930    2.4744    1.4290 H       1  UNL1        0.0620
     36 H          -1.2982    1.8127   -2.0778 H       1  UNL1        0.0377
     37 H          -2.4121    2.2179   -0.7582 H       1  UNL1        0.0377
     38 H          -1.9907   -2.3866   -3.0303 H       1  UNL1        0.1921
     39 H          -3.3987    1.6268    0.6181 H       1  UNL1        0.0314
     40 H          -3.2090    0.3405    1.7459 H       1  UNL1        0.0314
     41 H          -5.5694    0.5793   -0.1696 H       1  UNL1        0.0268
     42 H          -5.6367    1.0997    1.4857 H       1  UNL1        0.0268
     43 H          -6.4720   -1.2156    0.9669 H       1  UNL1        0.0269
     44 H          -5.2724   -1.0253    2.2838 H       1  UNL1        0.0269
     45 H          -4.0277   -2.4944    1.4097 H       1  UNL1        0.0315
     46 H          -5.2362   -2.7006    0.1048 H       1  UNL1        0.0315
     47 H           0.8321    0.7765   -1.5184 H       1  UNL1        0.0626
     48 H           3.7852    0.0153    1.6150 H       1  UNL1        0.0631
@<TRIPOS>BOND
     1     1     2    2
     2     2     3   am
     3     2     5    1
     4     3     4    1
     5     5     6   ar
     6     5    28   ar
     7     6     7   ar
     8     7     8   ar
     9     8     9   ar
    10     9    10    1
    11     9    28   ar
    12    10    11   ar
    13    10    27   ar
    14    11    12   ar
    15    12    13   ar
    16    13    14   ar
    17    14    15    1
    18    14    27   ar
    19    15    16    1
    20    16    17   ar
    21    16    22   ar
    22    17    18   ar
    23    18    19   ar
    24    19    20    2
    25    19    21   ar
    26    21    22   ar
    27    21    26    1
    28    22    23    1
    29    23    24    1
    30    24    25    1
    31    25    26    1
    32     3    29    1
    33     6    30    1
    34     7    31    1
    35     8    32    1
    36    11    33    1
    37    12    34    1
    38    13    35    1
    39    15    36    1
    40    15    37    1
    41    18    38    1
    42    23    39    1
    43    23    40    1
    44    24    41    1
    45    24    42    1
    46    25    43    1
    47    25    44    1
    48    26    45    1
    49    26    46    1
    50    27    47    1
    51    28    48    1
@<TRIPOS>MOLECULE
../data/bude_mols_rdkit_confs2/molecule_80.pdb
 48 51 0 0 0
SMALL
GASTEIGER

@<TRIPOS>ATOM
      1  O1         5.9870    0.5390   -2.7510 O.2     1  UNL1       -0.2679
      2  C1         4.8830    0.4290   -2.1970 C.2     1  UNL1        0.2706
      3  N1         3.7670    1.1190   -2.7260 N.am    1  UNL1       -0.1481
      4  F1         3.8720    1.9090   -3.8410 F       1  UNL1       -0.1090
      5  C2         4.7270   -0.3990   -1.0150 C.ar    1  UNL1        0.0395
      6  C3         5.8480   -1.0080   -0.4490 C.ar    1  UNL1       -0.0495
      7  C4         5.7860   -1.8080    0.6710 C.ar    1  UNL1       -0.0605
      8  C5         4.5400   -2.0260    1.2770 C.ar    1  UNL1       -0.0540
      9  C6         3.4190   -1.4390    0.7430 C.ar    1  UNL1       -0.0172
     10  C7         2.1210   -1.6560    1.3590 C.ar    1  UNL1       -0.0176
     11  C8         1.8220   -2.8410    1.9930 C.ar    1  UNL1       -0.0540
     12  C9         0.5680   -3.0340    2.5730 C.ar    1  UNL1       -0.0609
     13  C10       -0.4110   -2.0360    2.5260 C.ar    1  UNL1       -0.0582
     14  C11       -0.1170   -0.8510    1.8940 C.ar    1  UNL1       -0.0409
     15  C12       -1.1480    0.2170    1.8310 C.3     1  UNL1        0.0168
     16  C13       -1.9440    0.0810    0.6310 C.ar    1  UNL1        0.0693
     17  N2        -1.7510   -0.9960   -0.1710 N.ar    1  UNL1       -0.1753
     18  N3        -2.4410   -1.1770   -1.2740 N.ar    1  UNL1       -0.2427
     19  C14       -3.3660   -0.2920   -1.6400 C.ar    1  UNL1        0.2682
     20  O2        -3.9970   -0.5130   -2.7020 O.2     1  UNL1       -0.2661
     21  C15       -3.6010    0.8330   -0.8440 C.ar    1  UNL1        0.0232
     22  C16       -2.8960    1.0340    0.2980 C.ar    1  UNL1       -0.0158
     23  C17       -3.0810    2.1700    1.1650 C.3     1  UNL1       -0.0255
     24  C18       -4.1210    3.1270    0.6320 C.3     1  UNL1       -0.0487
     25  C19       -5.2630    2.3880   -0.0530 C.3     1  UNL1       -0.0486
     26  C20       -4.6330    1.7780   -1.2970 C.3     1  UNL1       -0.0222
     27  C21        1.1320   -0.6870    1.3290 C.ar    1  UNL1       -0.0505
     28  C22        3.5300   -0.6440   -0.3830 C.ar    1  UNL1       -0.0418
     29 H           2.8929    1.0294   -2.2820 H       1  UNL1        0.1882
     30 H           6.7675   -0.8516   -0.8906 H       1  UNL1        0.0625
     31 H           6.6406   -2.2389    1.0569 H       1  UNL1        0.0618
     32 H           4.4662   -2.6219    2.1163 H       1  UNL1        0.0624
     33 H           2.5296   -3.5908    2.0394 H       1  UNL1        0.0624
     34 H           0.3592   -3.9279    3.0446 H       1  UNL1        0.0618
     35 H          -1.3363   -2.1864    2.9575 H       1  UNL1        0.0620
     36 H          -0.6660    1.1723    1.8277 H       1  UNL1        0.0377
     37 H          -1.7888    0.1308    2.6835 H       1  UNL1        0.0377
     38 H          -2.2735   -1.9703   -1.8324 H       1  UNL1        0.1921
     39 H          -2.1498    2.6888    1.2577 H       1  UNL1        0.0314
     40 H          -3.4200    1.8093    2.1136 H       1  UNL1        0.0314
     41 H          -3.6588    3.7839   -0.0749 H       1  UNL1        0.0268
     42 H          -4.5245    3.6766    1.4567 H       1  UNL1        0.0268
     43 H          -6.0460    3.0667   -0.3200 H       1  UNL1        0.0269
     44 H          -5.7070    1.6494    0.5812 H       1  UNL1        0.0269
     45 H          -5.3761    1.2627   -1.8690 H       1  UNL1        0.0315
     46 H          -4.2058    2.5378   -1.9175 H       1  UNL1        0.0315
     47 H           1.3402    0.2074    0.8581 H       1  UNL1        0.0626
     48 H           2.6742   -0.2141   -0.7674 H       1  UNL1        0.0631
@<TRIPOS>BOND
     1     1     2    2
     2     2     3   am
     3     2     5    1
     4     3     4    1
     5     5     6   ar
     6     5    28   ar
     7     6     7   ar
     8     7     8   ar
     9     8     9   ar
    10     9    10    1
    11     9    28   ar
    12    10    11   ar
    13    10    27   ar
    14    11    12   ar
    15    12    13   ar
    16    13    14   ar
    17    14    15    1
    18    14    27   ar
    19    15    16    1
    20    16    17   ar
    21    16    22   ar
    22    17    18   ar
    23    18    19   ar
    24    19    20    2
    25    19    21   ar
    26    21    22   ar
    27    21    26    1
    28    22    23    1
    29    23    24    1
    30    24    25    1
    31    25    26    1
    32     3    29    1
    33     6    30    1
    34     7    31    1
    35     8    32    1
    36    11    33    1
    37    12    34    1
    38    13    35    1
    39    15    36    1
    40    15    37    1
    41    18    38    1
    42    23    39    1
    43    23    40    1
    44    24    41    1
    45    24    42    1
    46    25    43    1
    47    25    44    1
    48    26    45    1
    49    26    46    1
    50    27    47    1
    51    28    48    1
@<TRIPOS>MOLECULE
../data/bude_mols_rdkit_confs2/molecule_80.pdb
 48 51 0 0 0
SMALL
GASTEIGER

@<TRIPOS>ATOM
      1  O1         5.0210   -0.0910    2.3550 O.2     1  UNL1       -0.2679
      2  C1         5.5810    0.3410    1.2950 C.2     1  UNL1        0.2706
      3  N1         6.9050    0.8100    1.3860 N.am    1  UNL1       -0.1481
      4  F1         7.6060    0.8220    2.5580 F       1  UNL1       -0.1090
      5  C2         4.8290    0.3260    0.0530 C.ar    1  UNL1        0.0395
      6  C3         5.3240    0.9470   -1.0590 C.ar    1  UNL1       -0.0495
      7  C4         4.6010    0.9300   -2.2370 C.ar    1  UNL1       -0.0605
      8  C5         3.3830    0.2950   -2.3120 C.ar    1  UNL1       -0.0540
      9  C6         2.8540   -0.3410   -1.2130 C.ar    1  UNL1       -0.0172
     10  C7         1.5680   -1.0250   -1.2510 C.ar    1  UNL1       -0.0176
     11  C8         1.1610   -1.6150   -2.4340 C.ar    1  UNL1       -0.0540
     12  C9        -0.0440   -2.2710   -2.4590 C.ar    1  UNL1       -0.0609
     13  C10       -0.8390   -2.3360   -1.3010 C.ar    1  UNL1       -0.0582
     14  C11       -0.4510   -1.7630   -0.1380 C.ar    1  UNL1       -0.0409
     15  C12       -1.2700   -1.8220    1.0900 C.3     1  UNL1        0.0168
     16  C13       -1.8550   -0.4830    1.3960 C.ar    1  UNL1        0.0693
     17  N2        -1.0750    0.2860    2.2270 N.ar    1  UNL1       -0.1753
     18  N3        -1.4470    1.5040    2.5300 N.ar    1  UNL1       -0.2427
     19  C14       -2.6070    2.0330    2.0340 C.ar    1  UNL1        0.2682
     20  O2        -2.8830    3.2130    2.3800 O.2     1  UNL1       -0.2661
     21  C15       -3.4100    1.2960    1.2040 C.ar    1  UNL1        0.0232
     22  C16       -3.0210    0.0130    0.8840 C.ar    1  UNL1       -0.0158
     23  C17       -3.9050   -0.7720    0.0440 C.3     1  UNL1       -0.0255
     24  C18       -4.5380    0.0110   -1.0770 C.3     1  UNL1       -0.0487
     25  C19       -5.0270    1.3520   -0.6880 C.3     1  UNL1       -0.0486
     26  C20       -4.6390    1.8440    0.6750 C.3     1  UNL1       -0.0222
     27  C21        0.7830   -1.0930   -0.1220 C.ar    1  UNL1       -0.0505
     28  C22        3.5990   -0.3050   -0.0570 C.ar    1  UNL1       -0.0418
     29 H           7.3442    1.1434    0.5704 H       1  UNL1        0.1882
     30 H           6.2362    1.4280   -1.0194 H       1  UNL1        0.0625
     31 H           4.9808    1.4009   -3.0731 H       1  UNL1        0.0618
     32 H           2.8607    0.2958   -3.2021 H       1  UNL1        0.0624
     33 H           1.7507   -1.5630   -3.2793 H       1  UNL1        0.0624
     34 H          -0.3679   -2.7183   -3.3308 H       1  UNL1        0.0618
     35 H          -1.7422   -2.8338   -1.3390 H       1  UNL1        0.0620
     36 H          -0.6547   -2.1323    1.9085 H       1  UNL1        0.0377
     37 H          -2.0666   -2.5205    0.9402 H       1  UNL1        0.0377
     38 H          -0.8824    2.0485    3.1249 H       1  UNL1        0.1921
     39 H          -4.6850   -1.1723    0.6575 H       1  UNL1        0.0314
     40 H          -3.3063   -1.5342   -0.4094 H       1  UNL1        0.0314
     41 H          -5.3676   -0.5518   -1.4511 H       1  UNL1        0.0268
     42 H          -3.7737    0.1662   -1.8096 H       1  UNL1        0.0268
     43 H          -6.0959    1.3325   -0.7330 H       1  UNL1        0.0269
     44 H          -4.5618    2.0294   -1.3732 H       1  UNL1        0.0269
     45 H          -4.5317    2.9074    0.6242 H       1  UNL1        0.0315
     46 H          -5.4152    1.5221    1.3374 H       1  UNL1        0.0315
     47 H           1.1064   -0.6447    0.7494 H       1  UNL1        0.0626
     48 H           3.2195   -0.7762    0.7791 H       1  UNL1        0.0631
@<TRIPOS>BOND
     1     1     2    2
     2     2     3   am
     3     2     5    1
     4     3     4    1
     5     5     6   ar
     6     5    28   ar
     7     6     7   ar
     8     7     8   ar
     9     8     9   ar
    10     9    10    1
    11     9    28   ar
    12    10    11   ar
    13    10    27   ar
    14    11    12   ar
    15    12    13   ar
    16    13    14   ar
    17    14    15    1
    18    14    27   ar
    19    15    16    1
    20    16    17   ar
    21    16    22   ar
    22    17    18   ar
    23    18    19   ar
    24    19    20    2
    25    19    21   ar
    26    21    22   ar
    27    21    26    1
    28    22    23    1
    29    23    24    1
    30    24    25    1
    31    25    26    1
    32     3    29    1
    33     6    30    1
    34     7    31    1
    35     8    32    1
    36    11    33    1
    37    12    34    1
    38    13    35    1
    39    15    36    1
    40    15    37    1
    41    18    38    1
    42    23    39    1
    43    23    40    1
    44    24    41    1
    45    24    42    1
    46    25    43    1
    47    25    44    1
    48    26    45    1
    49    26    46    1
    50    27    47    1
    51    28    48    1
@<TRIPOS>MOLECULE
../data/bude_mols_rdkit_confs2/molecule_80.pdb
 48 51 0 0 0
SMALL
GASTEIGER

@<TRIPOS>ATOM
      1  O1         6.8370    0.9110    2.4170 O.2     1  UNL1       -0.2679
      2  C1         5.7610    1.1220    1.8100 C.2     1  UNL1        0.2706
      3  N1         5.2350    2.4310    1.7900 N.am    1  UNL1       -0.1481
      4  F1         5.8850    3.4580    2.4210 F       1  UNL1       -0.1090
      5  C2         5.0880    0.0320    1.1490 C.ar    1  UNL1        0.0395
      6  C3         5.6390   -1.2460    1.2670 C.ar    1  UNL1       -0.0495
      7  C4         5.0350   -2.3150    0.6480 C.ar    1  UNL1       -0.0605
      8  C5         3.8880   -2.0950   -0.0810 C.ar    1  UNL1       -0.0540
      9  C6         3.3300   -0.8440   -0.2100 C.ar    1  UNL1       -0.0172
     10  C7         2.1040   -0.6550   -1.0110 C.ar    1  UNL1       -0.0176
     11  C8         1.8770   -1.4490   -2.1090 C.ar    1  UNL1       -0.0540
     12  C9         0.7190   -1.2880   -2.8780 C.ar    1  UNL1       -0.0609
     13  C10       -0.2290   -0.3130   -2.5400 C.ar    1  UNL1       -0.0582
     14  C11       -0.0040    0.4690   -1.4560 C.ar    1  UNL1       -0.0409
     15  C12       -0.9720    1.5210   -1.0210 C.3     1  UNL1        0.0168
     16  C13       -1.8280    1.1210    0.0880 C.ar    1  UNL1        0.0693
     17  N2        -1.4200    1.4870    1.3410 N.ar    1  UNL1       -0.1753
     18  N3        -2.0890    1.1430    2.4330 N.ar    1  UNL1       -0.2427
     19  C14       -3.2130    0.4160    2.4380 C.ar    1  UNL1        0.2682
     20  O2        -3.8450    0.0910    3.4730 O.2     1  UNL1       -0.2661
     21  C15       -3.6790    0.0130    1.1790 C.ar    1  UNL1        0.0232
     22  C16       -2.9750    0.3770    0.0500 C.ar    1  UNL1       -0.0158
     23  C17       -3.5620   -0.0440   -1.2350 C.3     1  UNL1       -0.0255
     24  C18       -5.0110    0.3970   -1.1860 C.3     1  UNL1       -0.0487
     25  C19       -5.7450   -0.3820   -0.1290 C.3     1  UNL1       -0.0486
     26  C20       -4.9090   -0.8090    1.0280 C.3     1  UNL1       -0.0222
     27  C21        1.1640    0.2990   -0.6890 C.ar    1  UNL1       -0.0505
     28  C22        3.9420    0.2260    0.4140 C.ar    1  UNL1       -0.0418
     29 H           4.3902    2.6083    1.3166 H       1  UNL1        0.1882
     30 H           6.4995   -1.3880    1.8188 H       1  UNL1        0.0625
     31 H           5.4336   -3.2635    0.7283 H       1  UNL1        0.0618
     32 H           3.4315   -2.8951   -0.5462 H       1  UNL1        0.0624
     33 H           2.5670   -2.1710   -2.3691 H       1  UNL1        0.0624
     34 H           0.5620   -1.8918   -3.7001 H       1  UNL1        0.0618
     35 H          -1.0833   -0.1925   -3.1063 H       1  UNL1        0.0620
     36 H          -1.5958    1.7687   -1.8543 H       1  UNL1        0.0377
     37 H          -0.3910    2.3514   -0.6778 H       1  UNL1        0.0377
     38 H          -1.7342    1.4433    3.3009 H       1  UNL1        0.1921
     39 H          -3.4986   -1.1065   -1.3442 H       1  UNL1        0.0314
     40 H          -3.0450    0.3877   -2.0664 H       1  UNL1        0.0314
     41 H          -5.4679    0.2223   -2.1376 H       1  UNL1        0.0268
     42 H          -5.0552    1.4399   -0.9510 H       1  UNL1        0.0268
     43 H          -6.1536   -1.2591   -0.5858 H       1  UNL1        0.0269
     44 H          -6.4909    0.2759    0.2657 H       1  UNL1        0.0269
     45 H          -5.4909   -0.7224    1.9217 H       1  UNL1        0.0315
     46 H          -4.6040   -1.8194    0.8520 H       1  UNL1        0.0315
     47 H           1.3196    0.9029    0.1333 H       1  UNL1        0.0626
     48 H           3.5386    1.1720    0.3284 H       1  UNL1        0.0631
@<TRIPOS>BOND
     1     1     2    2
     2     2     3   am
     3     2     5    1
     4     3     4    1
     5     5     6   ar
     6     5    28   ar
     7     6     7   ar
     8     7     8   ar
     9     8     9   ar
    10     9    10    1
    11     9    28   ar
    12    10    11   ar
    13    10    27   ar
    14    11    12   ar
    15    12    13   ar
    16    13    14   ar
    17    14    15    1
    18    14    27   ar
    19    15    16    1
    20    16    17   ar
    21    16    22   ar
    22    17    18   ar
    23    18    19   ar
    24    19    20    2
    25    19    21   ar
    26    21    22   ar
    27    21    26    1
    28    22    23    1
    29    23    24    1
    30    24    25    1
    31    25    26    1
    32     3    29    1
    33     6    30    1
    34     7    31    1
    35     8    32    1
    36    11    33    1
    37    12    34    1
    38    13    35    1
    39    15    36    1
    40    15    37    1
    41    18    38    1
    42    23    39    1
    43    23    40    1
    44    24    41    1
    45    24    42    1
    46    25    43    1
    47    25    44    1
    48    26    45    1
    49    26    46    1
    50    27    47    1
    51    28    48    1
@<TRIPOS>MOLECULE
../data/bude_mols_rdkit_confs2/molecule_80.pdb
 48 51 0 0 0
SMALL
GASTEIGER

@<TRIPOS>ATOM
      1  O1         5.2330    2.1570   -0.0630 O.2     1  UNL1       -0.2679
      2  C1         5.5810    1.0990    0.5550 C.2     1  UNL1        0.2706
      3  N1         6.8050    1.0860    1.2550 N.am    1  UNL1       -0.1481
      4  F1         7.5780    2.2150    1.2460 F       1  UNL1       -0.1090
      5  C2         4.7390   -0.0810    0.5460 C.ar    1  UNL1        0.0395
      6  C3         5.0610   -1.2050    1.2630 C.ar    1  UNL1       -0.0495
      7  C4         4.2630   -2.3490    1.2650 C.ar    1  UNL1       -0.0605
      8  C5         3.1130   -2.3350    0.5130 C.ar    1  UNL1       -0.0540
      9  C6         2.7350   -1.2280   -0.2340 C.ar    1  UNL1       -0.0172
     10  C7         1.5060   -1.2520   -1.0180 C.ar    1  UNL1       -0.0176
     11  C8         1.0580   -2.4460   -1.5760 C.ar    1  UNL1       -0.0540
     12  C9        -0.0820   -2.5290   -2.3160 C.ar    1  UNL1       -0.0609
     13  C10       -0.8120   -1.3580   -2.5100 C.ar    1  UNL1       -0.0582
     14  C11       -0.4410   -0.1430   -1.9950 C.ar    1  UNL1       -0.0409
     15  C12       -1.2050    1.1290   -2.1680 C.3     1  UNL1        0.0168
     16  C13       -1.8030    1.5830   -0.8880 C.ar    1  UNL1        0.0693
     17  N2        -1.0560    2.5170   -0.2090 N.ar    1  UNL1       -0.1753
     18  N3        -1.4080    3.0020    0.9500 N.ar    1  UNL1       -0.2427
     19  C14       -2.5420    2.6040    1.5490 C.ar    1  UNL1        0.2682
     20  O2        -2.8470    3.0910    2.6610 O.2     1  UNL1       -0.2661
     21  C15       -3.3210    1.6760    0.9120 C.ar    1  UNL1        0.0232
     22  C16       -2.9590    1.1450   -0.3340 C.ar    1  UNL1       -0.0158
     23  C17       -3.8270    0.1810   -1.0160 C.3     1  UNL1       -0.0255
     24  C18       -4.5100   -0.7680   -0.0590 C.3     1  UNL1       -0.0487
     25  C19       -4.5070   -0.3510    1.3640 C.3     1  UNL1       -0.0486
     26  C20       -4.5830    1.1590    1.4810 C.3     1  UNL1       -0.0222
     27  C21        0.7450   -0.1330   -1.2420 C.ar    1  UNL1       -0.0505
     28  C22        3.5650   -0.1360   -0.1910 C.ar    1  UNL1       -0.0418
     29 H           7.0975    0.2809    1.7404 H       1  UNL1        0.1882
     30 H           5.9278   -1.2043    1.8231 H       1  UNL1        0.0625
     31 H           4.5283   -3.1811    1.8148 H       1  UNL1        0.0618
     32 H           2.5117   -3.1737    0.5034 H       1  UNL1        0.0624
     33 H           1.6123   -3.3029   -1.4226 H       1  UNL1        0.0624
     34 H          -0.3940   -3.4266   -2.7186 H       1  UNL1        0.0618
     35 H          -1.6770   -1.4081   -3.0706 H       1  UNL1        0.0620
     36 H          -1.9875    0.9704   -2.8803 H       1  UNL1        0.0377
     37 H          -0.5273    1.8839   -2.5082 H       1  UNL1        0.0377
     38 H          -0.8342    3.6691    1.3915 H       1  UNL1        0.1921
     39 H          -3.2338   -0.3901   -1.6993 H       1  UNL1        0.0314
     40 H          -4.5903    0.7348   -1.5216 H       1  UNL1        0.0314
     41 H          -4.0170   -1.7153   -0.1260 H       1  UNL1        0.0268
     42 H          -5.5378   -0.7949   -0.3552 H       1  UNL1        0.0268
     43 H          -3.6063   -0.6943    1.8286 H       1  UNL1        0.0269
     44 H          -5.3607   -0.7767    1.8487 H       1  UNL1        0.0269
     45 H          -5.4201    1.5329    0.9294 H       1  UNL1        0.0315
     46 H          -4.7096    1.4673    2.4978 H       1  UNL1        0.0315
     47 H           1.0598    0.7623   -0.8366 H       1  UNL1        0.0626
     48 H           3.2994    0.6958   -0.7410 H       1  UNL1        0.0631
@<TRIPOS>BOND
     1     1     2    2
     2     2     3   am
     3     2     5    1
     4     3     4    1
     5     5     6   ar
     6     5    28   ar
     7     6     7   ar
     8     7     8   ar
     9     8     9   ar
    10     9    10    1
    11     9    28   ar
    12    10    11   ar
    13    10    27   ar
    14    11    12   ar
    15    12    13   ar
    16    13    14   ar
    17    14    15    1
    18    14    27   ar
    19    15    16    1
    20    16    17   ar
    21    16    22   ar
    22    17    18   ar
    23    18    19   ar
    24    19    20    2
    25    19    21   ar
    26    21    22   ar
    27    21    26    1
    28    22    23    1
    29    23    24    1
    30    24    25    1
    31    25    26    1
    32     3    29    1
    33     6    30    1
    34     7    31    1
    35     8    32    1
    36    11    33    1
    37    12    34    1
    38    13    35    1
    39    15    36    1
    40    15    37    1
    41    18    38    1
    42    23    39    1
    43    23    40    1
    44    24    41    1
    45    24    42    1
    46    25    43    1
    47    25    44    1
    48    26    45    1
    49    26    46    1
    50    27    47    1
    51    28    48    1
@<TRIPOS>MOLECULE
../data/bude_mols_rdkit_confs2/molecule_80.pdb
 48 51 0 0 0
SMALL
GASTEIGER

@<TRIPOS>ATOM
      1  O1        -3.5800    2.5510    1.8880 O.2     1  UNL1       -0.2679
      2  C1        -4.5990    1.8260    1.6910 C.2     1  UNL1        0.2706
      3  N1        -5.7720    2.1840    2.3980 N.am    1  UNL1       -0.1481
      4  F1        -5.8110    3.2380    3.2380 F       1  UNL1       -0.1090
      5  C2        -4.5100    0.6970    0.7770 C.ar    1  UNL1        0.0395
      6  C3        -5.6140   -0.0320    0.4140 C.ar    1  UNL1       -0.0495
      7  C4        -5.5180   -1.1110   -0.4470 C.ar    1  UNL1       -0.0605
      8  C5        -4.2770   -1.4600   -0.9530 C.ar    1  UNL1       -0.0540
      9  C6        -3.1360   -0.7590   -0.6210 C.ar    1  UNL1       -0.0172
     10  C7        -1.8220   -1.1050   -1.1330 C.ar    1  UNL1       -0.0176
     11  C8        -1.5680   -2.4580   -1.3860 C.ar    1  UNL1       -0.0540
     12  C9        -0.3460   -2.8050   -1.8740 C.ar    1  UNL1       -0.0609
     13  C10        0.6180   -1.8190   -2.1090 C.ar    1  UNL1       -0.0582
     14  C11        0.4040   -0.5010   -1.8740 C.ar    1  UNL1       -0.0409
     15  C12        1.3950    0.5720   -2.0990 C.3     1  UNL1        0.0168
     16  C13        1.9360    1.0710   -0.8300 C.ar    1  UNL1        0.0693
     17  N2         1.2010    2.0930   -0.2660 N.ar    1  UNL1       -0.1753
     18  N3         1.5220    2.5820    0.9020 N.ar    1  UNL1       -0.2427
     19  C14        2.5660    2.1320    1.6180 C.ar    1  UNL1        0.2682
     20  O2         2.8880    2.5790    2.7270 O.2     1  UNL1       -0.2661
     21  C15        3.3460    1.0900    1.0810 C.ar    1  UNL1        0.0232
     22  C16        3.0220    0.5680   -0.1470 C.ar    1  UNL1       -0.0158
     23  C17        3.8390   -0.4620   -0.7860 C.3     1  UNL1       -0.0255
     24  C18        4.4770   -1.2890    0.3420 C.3     1  UNL1       -0.0487
     25  C19        5.3630   -0.3030    1.1150 C.3     1  UNL1       -0.0486
     26  C20        4.4750    0.6110    1.8930 C.3     1  UNL1       -0.0222
     27  C21       -0.8680   -0.1540   -1.3680 C.ar    1  UNL1       -0.0505
     28  C22       -3.2750    0.3100    0.2410 C.ar    1  UNL1       -0.0418
     29 H          -6.5865    1.6454    2.2722 H       1  UNL1        0.1882
     30 H          -6.5377    0.2305    0.7919 H       1  UNL1        0.0625
     31 H          -6.3595   -1.6482   -0.7084 H       1  UNL1        0.0618
     32 H          -4.2038   -2.2649   -1.5947 H       1  UNL1        0.0624
     33 H          -2.2891   -3.1742   -1.2070 H       1  UNL1        0.0624
     34 H          -0.1306   -3.7949   -2.0706 H       1  UNL1        0.0618
     35 H           1.5367   -2.1089   -2.4792 H       1  UNL1        0.0620
     36 H           0.9228    1.3796   -2.6184 H       1  UNL1        0.0377
     37 H           2.2019    0.1715   -2.6765 H       1  UNL1        0.0377
     38 H           0.9754    3.3117    1.2736 H       1  UNL1        0.1921
     39 H           4.6003   -0.0084   -1.3856 H       1  UNL1        0.0314
     40 H           3.2445   -1.0806   -1.4254 H       1  UNL1        0.0314
     41 H           5.0668   -2.0843   -0.0637 H       1  UNL1        0.0268
     42 H           3.7394   -1.7410    0.9717 H       1  UNL1        0.0268
     43 H           5.9562    0.2652    0.4293 H       1  UNL1        0.0269
     44 H           6.0172   -0.8332    1.7752 H       1  UNL1        0.0269
     45 H           4.0930    0.0841    2.7423 H       1  UNL1        0.0315
     46 H           5.0520    1.4592    2.1972 H       1  UNL1        0.0315
     47 H          -1.0816    0.8364   -1.1718 H       1  UNL1        0.0626
     48 H          -2.4332    0.8471    0.5017 H       1  UNL1        0.0631
@<TRIPOS>BOND
     1     1     2    2
     2     2     3   am
     3     2     5    1
     4     3     4    1
     5     5     6   ar
     6     5    28   ar
     7     6     7   ar
     8     7     8   ar
     9     8     9   ar
    10     9    10    1
    11     9    28   ar
    12    10    11   ar
    13    10    27   ar
    14    11    12   ar
    15    12    13   ar
    16    13    14   ar
    17    14    15    1
    18    14    27   ar
    19    15    16    1
    20    16    17   ar
    21    16    22   ar
    22    17    18   ar
    23    18    19   ar
    24    19    20    2
    25    19    21   ar
    26    21    22   ar
    27    21    26    1
    28    22    23    1
    29    23    24    1
    30    24    25    1
    31    25    26    1
    32     3    29    1
    33     6    30    1
    34     7    31    1
    35     8    32    1
    36    11    33    1
    37    12    34    1
    38    13    35    1
    39    15    36    1
    40    15    37    1
    41    18    38    1
    42    23    39    1
    43    23    40    1
    44    24    41    1
    45    24    42    1
    46    25    43    1
    47    25    44    1
    48    26    45    1
    49    26    46    1
    50    27    47    1
    51    28    48    1
@<TRIPOS>MOLECULE
../data/bude_mols_rdkit_confs2/molecule_80.pdb
 48 51 0 0 0
SMALL
GASTEIGER

@<TRIPOS>ATOM
      1  O1         3.8370    2.9990   -0.5650 O.2     1  UNL1       -0.2679
      2  C1         4.8530    2.2820   -0.6880 C.2     1  UNL1        0.2706
      3  N1         6.1050    2.8850   -0.9020 N.am    1  UNL1       -0.1481
      4  F1         6.2530    4.2430   -0.9820 F       1  UNL1       -0.1090
      5  C2         4.7240    0.8470   -0.6080 C.ar    1  UNL1        0.0395
      6  C3         5.7980   -0.0000   -0.7770 C.ar    1  UNL1       -0.0495
      7  C4         5.6090   -1.3690   -0.6860 C.ar    1  UNL1       -0.0605
      8  C5         4.3410   -1.9050   -0.4240 C.ar    1  UNL1       -0.0540
      9  C6         3.2590   -1.0720   -0.2540 C.ar    1  UNL1       -0.0172
     10  C7         1.9110   -1.5710    0.0250 C.ar    1  UNL1       -0.0176
     11  C8         1.5500   -2.7870   -0.5050 C.ar    1  UNL1       -0.0540
     12  C9         0.2800   -3.2580   -0.2410 C.ar    1  UNL1       -0.0609
     13  C10       -0.6130   -2.5220    0.5410 C.ar    1  UNL1       -0.0582
     14  C11       -0.2690   -1.3170    1.0710 C.ar    1  UNL1       -0.0409
     15  C12       -1.1310   -0.4460    1.9030 C.3     1  UNL1        0.0168
     16  C13       -1.7880    0.6370    1.1750 C.ar    1  UNL1        0.0693
     17  N2        -1.2900    1.8930    1.1860 N.ar    1  UNL1       -0.1753
     18  N3        -1.8030    2.9070    0.5370 N.ar    1  UNL1       -0.2427
     19  C14       -2.9130    2.7460   -0.2170 C.ar    1  UNL1        0.2682
     20  O2        -3.4210    3.7240   -0.8540 O.2     1  UNL1       -0.2661
     21  C15       -3.4650    1.4920   -0.2670 C.ar    1  UNL1        0.0232
     22  C16       -2.9160    0.4040    0.4300 C.ar    1  UNL1       -0.0158
     23  C17       -3.6010   -0.8800    0.3120 C.3     1  UNL1       -0.0255
     24  C18       -5.0870   -0.8160    0.0990 C.3     1  UNL1       -0.0487
     25  C19       -5.6520    0.5440   -0.1150 C.3     1  UNL1       -0.0486
     26  C20       -4.6880    1.2590   -1.0770 C.3     1  UNL1       -0.0222
     27  C21        1.0180   -0.8520    0.7980 C.ar    1  UNL1       -0.0505
     28  C22        3.4650    0.2720   -0.3470 C.ar    1  UNL1       -0.0418
     29 H           6.9001    2.3123   -0.9973 H       1  UNL1        0.1882
     30 H           6.7366    0.3832   -0.9700 H       1  UNL1        0.0625
     31 H           6.4132   -2.0032   -0.8129 H       1  UNL1        0.0618
     32 H           4.2183   -2.9276   -0.3583 H       1  UNL1        0.0624
     33 H           2.2091   -3.3314   -1.0831 H       1  UNL1        0.0624
     34 H          -0.0145   -4.1684   -0.6275 H       1  UNL1        0.0618
     35 H          -1.5558   -2.9010    0.7210 H       1  UNL1        0.0620
     36 H          -0.5246   -0.0120    2.6703 H       1  UNL1        0.0377
     37 H          -1.9114   -1.0699    2.2858 H       1  UNL1        0.0377
     38 H          -1.3776    3.7927    0.5984 H       1  UNL1        0.1921
     39 H          -3.4226   -1.4303    1.2121 H       1  UNL1        0.0314
     40 H          -3.2027   -1.3399   -0.5682 H       1  UNL1        0.0314
     41 H          -5.5608   -1.2365    0.9613 H       1  UNL1        0.0268
     42 H          -5.2745   -1.3547   -0.8063 H       1  UNL1        0.0268
     43 H          -5.7101    1.0725    0.8136 H       1  UNL1        0.0269
     44 H          -6.6426    0.4973   -0.5168 H       1  UNL1        0.0269
     45 H          -4.4700    0.6415   -1.9232 H       1  UNL1        0.0315
     46 H          -5.0988    2.1669   -1.4667 H       1  UNL1        0.0315
     47 H           1.3129    0.0579    1.1855 H       1  UNL1        0.0626
     48 H           2.6567    0.9009   -0.2196 H       1  UNL1        0.0631
@<TRIPOS>BOND
     1     1     2    2
     2     2     3   am
     3     2     5    1
     4     3     4    1
     5     5     6   ar
     6     5    28   ar
     7     6     7   ar
     8     7     8   ar
     9     8     9   ar
    10     9    10    1
    11     9    28   ar
    12    10    11   ar
    13    10    27   ar
    14    11    12   ar
    15    12    13   ar
    16    13    14   ar
    17    14    15    1
    18    14    27   ar
    19    15    16    1
    20    16    17   ar
    21    16    22   ar
    22    17    18   ar
    23    18    19   ar
    24    19    20    2
    25    19    21   ar
    26    21    22   ar
    27    21    26    1
    28    22    23    1
    29    23    24    1
    30    24    25    1
    31    25    26    1
    32     3    29    1
    33     6    30    1
    34     7    31    1
    35     8    32    1
    36    11    33    1
    37    12    34    1
    38    13    35    1
    39    15    36    1
    40    15    37    1
    41    18    38    1
    42    23    39    1
    43    23    40    1
    44    24    41    1
    45    24    42    1
    46    25    43    1
    47    25    44    1
    48    26    45    1
    49    26    46    1
    50    27    47    1
    51    28    48    1
@<TRIPOS>MOLECULE
../data/bude_mols_rdkit_confs2/molecule_80.pdb
 48 51 0 0 0
SMALL
GASTEIGER

@<TRIPOS>ATOM
      1  O1         7.2650   -1.4990    0.0940 O.2     1  UNL1       -0.2679
      2  C1         7.1520   -0.2450    0.2230 C.2     1  UNL1        0.2706
      3  N1         8.2890    0.5440    0.3980 N.am    1  UNL1       -0.1481
      4  F1         9.5580    0.0250    0.4400 F       1  UNL1       -0.1090
      5  C2         5.8240    0.3320    0.1830 C.ar    1  UNL1        0.0395
      6  C3         5.5990    1.6830    0.3170 C.ar    1  UNL1       -0.0495
      7  C4         4.3230    2.2070    0.2750 C.ar    1  UNL1       -0.0605
      8  C5         3.2360    1.3780    0.0950 C.ar    1  UNL1       -0.0540
      9  C6         3.4130    0.0190   -0.0440 C.ar    1  UNL1       -0.0172
     10  C7         2.2320   -0.8090   -0.2310 C.ar    1  UNL1       -0.0176
     11  C8         2.3390   -1.9630   -0.9840 C.ar    1  UNL1       -0.0540
     12  C9         1.2780   -2.7890   -1.2030 C.ar    1  UNL1       -0.0609
     13  C10        0.0650   -2.4420   -0.6450 C.ar    1  UNL1       -0.0582
     14  C11       -0.1160   -1.3020    0.1200 C.ar    1  UNL1       -0.0409
     15  C12       -1.4450   -1.0250    0.6670 C.3     1  UNL1        0.0168
     16  C13       -2.3030   -0.2240   -0.1970 C.ar    1  UNL1        0.0693
     17  N2        -1.8800    0.2180   -1.3830 N.ar    1  UNL1       -0.1753
     18  N3        -2.6530    0.9510   -2.1820 N.ar    1  UNL1       -0.2427
     19  C14       -3.9010    1.2810   -1.8290 C.ar    1  UNL1        0.2682
     20  O2        -4.6250    1.9800   -2.6010 O.2     1  UNL1       -0.2661
     21  C15       -4.4020    0.8510   -0.6040 C.ar    1  UNL1        0.0232
     22  C16       -3.5780    0.0820    0.2240 C.ar    1  UNL1       -0.0158
     23  C17       -4.1120   -0.3770    1.5310 C.3     1  UNL1       -0.0255
     24  C18       -5.6250   -0.4210    1.5310 C.3     1  UNL1       -0.0487
     25  C19       -6.1130    0.9620    1.1830 C.3     1  UNL1       -0.0486
     26  C20       -5.7770    1.2340   -0.2520 C.3     1  UNL1       -0.0222
     27  C21        0.9980   -0.5030    0.3080 C.ar    1  UNL1       -0.0505
     28  C22        4.6930   -0.4760    0.0020 C.ar    1  UNL1       -0.0418
     29 H           8.1755    1.5170    0.4958 H       1  UNL1        0.1882
     30 H           6.4015    2.3177    0.4518 H       1  UNL1        0.0625
     31 H           4.1817    3.2240    0.3788 H       1  UNL1        0.0618
     32 H           2.2850    1.7777    0.0643 H       1  UNL1        0.0624
     33 H           3.2538   -2.2073   -1.3944 H       1  UNL1        0.0624
     34 H           1.3784   -3.6467   -1.7681 H       1  UNL1        0.0618
     35 H          -0.7452   -3.0608   -0.8051 H       1  UNL1        0.0620
     36 H          -1.3224   -0.5023    1.5925 H       1  UNL1        0.0377
     37 H          -1.9293   -1.9724    0.7803 H       1  UNL1        0.0377
     38 H          -2.2997    1.2559   -3.0489 H       1  UNL1        0.1921
     39 H          -3.7843    0.2960    2.2955 H       1  UNL1        0.0314
     40 H          -3.7487   -1.3671    1.7116 H       1  UNL1        0.0314
     41 H          -5.9832   -0.7030    2.4990 H       1  UNL1        0.0268
     42 H          -5.9834   -1.1387    0.8230 H       1  UNL1        0.0268
     43 H          -5.6321    1.6835    1.8099 H       1  UNL1        0.0269
     44 H          -7.1705    1.0275    1.3322 H       1  UNL1        0.0269
     45 H          -6.4534    0.6822   -0.8708 H       1  UNL1        0.0315
     46 H          -5.8640    2.2893   -0.4060 H       1  UNL1        0.0315
     47 H           0.9029    0.3552    0.8732 H       1  UNL1        0.0626
     48 H           4.8291   -1.4937   -0.1019 H       1  UNL1        0.0631
@<TRIPOS>BOND
     1     1     2    2
     2     2     3   am
     3     2     5    1
     4     3     4    1
     5     5     6   ar
     6     5    28   ar
     7     6     7   ar
     8     7     8   ar
     9     8     9   ar
    10     9    10    1
    11     9    28   ar
    12    10    11   ar
    13    10    27   ar
    14    11    12   ar
    15    12    13   ar
    16    13    14   ar
    17    14    15    1
    18    14    27   ar
    19    15    16    1
    20    16    17   ar
    21    16    22   ar
    22    17    18   ar
    23    18    19   ar
    24    19    20    2
    25    19    21   ar
    26    21    22   ar
    27    21    26    1
    28    22    23    1
    29    23    24    1
    30    24    25    1
    31    25    26    1
    32     3    29    1
    33     6    30    1
    34     7    31    1
    35     8    32    1
    36    11    33    1
    37    12    34    1
    38    13    35    1
    39    15    36    1
    40    15    37    1
    41    18    38    1
    42    23    39    1
    43    23    40    1
    44    24    41    1
    45    24    42    1
    46    25    43    1
    47    25    44    1
    48    26    45    1
    49    26    46    1
    50    27    47    1
    51    28    48    1
@<TRIPOS>MOLECULE
../data/bude_mols_rdkit_confs2/molecule_80.pdb
 48 51 0 0 0
SMALL
GASTEIGER

@<TRIPOS>ATOM
      1  O1         7.9570   -0.4580   -1.4810 O.2     1  UNL1       -0.2679
      2  C1         7.0710   -0.3900   -0.5770 C.2     1  UNL1        0.2706
      3  N1         7.5250   -0.4580    0.7570 N.am    1  UNL1       -0.1481
      4  F1         8.8440   -0.5900    1.0650 F       1  UNL1       -0.1090
      5  C2         5.6820   -0.2490   -0.9760 C.ar    1  UNL1        0.0395
      6  C3         5.3440   -0.1800   -2.3140 C.ar    1  UNL1       -0.0495
      7  C4         4.0410   -0.0470   -2.7390 C.ar    1  UNL1       -0.0605
      8  C5         3.0180    0.0230   -1.8080 C.ar    1  UNL1       -0.0540
      9  C6         3.3270   -0.0440   -0.4660 C.ar    1  UNL1       -0.0172
     10  C7         2.2470    0.0300    0.5170 C.ar    1  UNL1       -0.0176
     11  C8         2.5060    0.6010    1.7520 C.ar    1  UNL1       -0.0540
     12  C9         1.4960    0.6770    2.6890 C.ar    1  UNL1       -0.0609
     13  C10        0.2540    0.1790    2.3630 C.ar    1  UNL1       -0.0582
     14  C11       -0.0070   -0.3920    1.1290 C.ar    1  UNL1       -0.0409
     15  C12       -1.3880   -0.9160    0.8380 C.3     1  UNL1        0.0168
     16  C13       -2.1730    0.2150    0.2470 C.ar    1  UNL1        0.0693
     17  N2        -1.6270    1.4290    0.0580 N.ar    1  UNL1       -0.1753
     18  N3        -2.3020    2.4400   -0.4620 N.ar    1  UNL1       -0.2427
     19  C14       -3.5920    2.2770   -0.8270 C.ar    1  UNL1        0.2682
     20  O2        -4.2640    3.2250   -1.3270 O.2     1  UNL1       -0.2661
     21  C15       -4.1950    1.0540   -0.6540 C.ar    1  UNL1        0.0232
     22  C16       -3.4800    0.0110   -0.1110 C.ar    1  UNL1       -0.0158
     23  C17       -4.1080   -1.3220    0.0870 C.3     1  UNL1       -0.0255
     24  C18       -5.5420   -1.2240    0.5110 C.3     1  UNL1       -0.0487
     25  C19       -6.2270    0.0350    0.1360 C.3     1  UNL1       -0.0486
     26  C20       -5.6110    0.7710   -1.0220 C.3     1  UNL1       -0.0222
     27  C21        0.9920   -0.4660    0.2060 C.ar    1  UNL1       -0.0505
     28  C22        4.6590   -0.1790   -0.0570 C.ar    1  UNL1       -0.0418
     29 H           6.8672   -0.4084    1.4878 H       1  UNL1        0.1882
     30 H           6.0950   -0.2299   -3.0201 H       1  UNL1        0.0625
     31 H           3.8275    0.0003   -3.7476 H       1  UNL1        0.0618
     32 H           2.0378    0.1239   -2.1146 H       1  UNL1        0.0624
     33 H           3.4463    0.9665    1.9695 H       1  UNL1        0.0624
     34 H           1.6677    1.0984    3.6152 H       1  UNL1        0.0618
     35 H          -0.5053    0.2331    3.0598 H       1  UNL1        0.0620
     36 H          -1.8514   -1.2513    1.7423 H       1  UNL1        0.0377
     37 H          -1.3463   -1.7446    0.1623 H       1  UNL1        0.0377
     38 H          -1.8635    3.3131   -0.5833 H       1  UNL1        0.1921
     39 H          -3.5625   -1.8496    0.8413 H       1  UNL1        0.0314
     40 H          -4.0809   -1.8365   -0.8508 H       1  UNL1        0.0314
     41 H          -5.5790   -1.3161    1.5764 H       1  UNL1        0.0268
     42 H          -6.0578   -2.0071   -0.0044 H       1  UNL1        0.0268
     43 H          -6.2167    0.6848    0.9860 H       1  UNL1        0.0269
     44 H          -7.2130   -0.2411   -0.1745 H       1  UNL1        0.0269
     45 H          -5.6477    0.1658   -1.9036 H       1  UNL1        0.0315
     46 H          -6.1418    1.6778   -1.2243 H       1  UNL1        0.0315
     47 H           0.8149   -0.8887   -0.7186 H       1  UNL1        0.0626
     48 H           4.8779   -0.2269    0.9504 H       1  UNL1        0.0631
@<TRIPOS>BOND
     1     1     2    2
     2     2     3   am
     3     2     5    1
     4     3     4    1
     5     5     6   ar
     6     5    28   ar
     7     6     7   ar
     8     7     8   ar
     9     8     9   ar
    10     9    10    1
    11     9    28   ar
    12    10    11   ar
    13    10    27   ar
    14    11    12   ar
    15    12    13   ar
    16    13    14   ar
    17    14    15    1
    18    14    27   ar
    19    15    16    1
    20    16    17   ar
    21    16    22   ar
    22    17    18   ar
    23    18    19   ar
    24    19    20    2
    25    19    21   ar
    26    21    22   ar
    27    21    26    1
    28    22    23    1
    29    23    24    1
    30    24    25    1
    31    25    26    1
    32     3    29    1
    33     6    30    1
    34     7    31    1
    35     8    32    1
    36    11    33    1
    37    12    34    1
    38    13    35    1
    39    15    36    1
    40    15    37    1
    41    18    38    1
    42    23    39    1
    43    23    40    1
    44    24    41    1
    45    24    42    1
    46    25    43    1
    47    25    44    1
    48    26    45    1
    49    26    46    1
    50    27    47    1
    51    28    48    1
@<TRIPOS>MOLECULE
../data/bude_mols_rdkit_confs2/molecule_80.pdb
 48 51 0 0 0
SMALL
GASTEIGER

@<TRIPOS>ATOM
      1  O1         3.4340   -1.8430    2.6210 O.2     1  UNL1       -0.2679
      2  C1         4.4670   -1.7950    1.8680 C.2     1  UNL1        0.2706
      3  N1         5.6440   -2.4300    2.3460 N.am    1  UNL1       -0.1481
      4  F1         5.6300   -3.0520    3.5620 F       1  UNL1       -0.1090
      5  C2         4.3710   -1.1120    0.6060 C.ar    1  UNL1        0.0395
      6  C3         5.4650   -1.0250   -0.2380 C.ar    1  UNL1       -0.0495
      7  C4         5.3540   -0.3590   -1.4520 C.ar    1  UNL1       -0.0605
      8  C5         4.1580    0.2350   -1.8530 C.ar    1  UNL1       -0.0540
      9  C6         3.0810    0.1420   -1.0100 C.ar    1  UNL1       -0.0172
     10  C7         1.8200    0.7550   -1.3920 C.ar    1  UNL1       -0.0176
     11  C8         1.4560    0.8400   -2.7180 C.ar    1  UNL1       -0.0540
     12  C9         0.2490    1.4270   -3.0550 C.ar    1  UNL1       -0.0609
     13  C10       -0.6000    1.9310   -2.0560 C.ar    1  UNL1       -0.0582
     14  C11       -0.2390    1.8450   -0.7440 C.ar    1  UNL1       -0.0409
     15  C12       -1.1320    2.3520    0.3370 C.3     1  UNL1        0.0168
     16  C13       -1.7620    1.1760    0.9740 C.ar    1  UNL1        0.0693
     17  N2        -1.1350    0.6370    2.0270 N.ar    1  UNL1       -0.1753
     18  N3        -1.5720   -0.4520    2.6240 N.ar    1  UNL1       -0.2427
     19  C14       -2.7000   -1.0550    2.1600 C.ar    1  UNL1        0.2682
     20  O2        -3.0990   -2.0960    2.7460 O.2     1  UNL1       -0.2661
     21  C15       -3.3810   -0.5500    1.0910 C.ar    1  UNL1        0.0232
     22  C16       -2.8950    0.5950    0.4890 C.ar    1  UNL1       -0.0158
     23  C17       -3.7100    1.1210   -0.6290 C.3     1  UNL1       -0.0255
     24  C18       -4.1030   -0.0480   -1.4830 C.3     1  UNL1       -0.0487
     25  C19       -5.1470   -0.8250   -0.6610 C.3     1  UNL1       -0.0486
     26  C20       -4.5970   -1.2780    0.6490 C.3     1  UNL1       -0.0222
     27  C21        0.9760    1.2540   -0.4220 C.ar    1  UNL1       -0.0505
     28  C22        3.2050   -0.5230    0.1930 C.ar    1  UNL1       -0.0418
     29 H           6.4657   -2.4219    1.8038 H       1  UNL1        0.1882
     30 H           6.3627   -1.4548    0.0347 H       1  UNL1        0.0625
     31 H           6.1769   -0.3025   -2.0722 H       1  UNL1        0.0618
     32 H           4.0858    0.7292   -2.7561 H       1  UNL1        0.0624
     33 H           2.0779    0.4692   -3.4534 H       1  UNL1        0.0624
     34 H          -0.0291    1.4949   -4.0465 H       1  UNL1        0.0618
     35 H          -1.4986    2.3672   -2.3155 H       1  UNL1        0.0620
     36 H          -1.8838    2.9902   -0.0782 H       1  UNL1        0.0377
     37 H          -0.5752    2.9185    1.0539 H       1  UNL1        0.0377
     38 H          -1.0888   -0.8253    3.3963 H       1  UNL1        0.1921
     39 H          -3.1367    1.8180   -1.2038 H       1  UNL1        0.0314
     40 H          -4.5765    1.6289   -0.2600 H       1  UNL1        0.0314
     41 H          -3.2528   -0.6649   -1.6867 H       1  UNL1        0.0268
     42 H          -4.4947    0.2648   -2.4283 H       1  UNL1        0.0268
     43 H          -5.4596   -1.6821   -1.2201 H       1  UNL1        0.0269
     44 H          -5.9707   -0.1703   -0.4667 H       1  UNL1        0.0269
     45 H          -5.3545   -1.1460    1.3931 H       1  UNL1        0.0315
     46 H          -4.3098   -2.3008    0.5212 H       1  UNL1        0.0315
     47 H           1.2546    1.1865    0.5694 H       1  UNL1        0.0626
     48 H           2.3803   -0.5793    0.8108 H       1  UNL1        0.0631
@<TRIPOS>BOND
     1     1     2    2
     2     2     3   am
     3     2     5    1
     4     3     4    1
     5     5     6   ar
     6     5    28   ar
     7     6     7   ar
     8     7     8   ar
     9     8     9   ar
    10     9    10    1
    11     9    28   ar
    12    10    11   ar
    13    10    27   ar
    14    11    12   ar
    15    12    13   ar
    16    13    14   ar
    17    14    15    1
    18    14    27   ar
    19    15    16    1
    20    16    17   ar
    21    16    22   ar
    22    17    18   ar
    23    18    19   ar
    24    19    20    2
    25    19    21   ar
    26    21    22   ar
    27    21    26    1
    28    22    23    1
    29    23    24    1
    30    24    25    1
    31    25    26    1
    32     3    29    1
    33     6    30    1
    34     7    31    1
    35     8    32    1
    36    11    33    1
    37    12    34    1
    38    13    35    1
    39    15    36    1
    40    15    37    1
    41    18    38    1
    42    23    39    1
    43    23    40    1
    44    24    41    1
    45    24    42    1
    46    25    43    1
    47    25    44    1
    48    26    45    1
    49    26    46    1
    50    27    47    1
    51    28    48    1
@<TRIPOS>MOLECULE
../data/bude_mols_rdkit_confs2/molecule_80.pdb
 48 51 0 0 0
SMALL
GASTEIGER

@<TRIPOS>ATOM
      1  O1         2.5670    2.2700   -2.6610 O.2     1  UNL1       -0.2679
      2  C1         3.7280    2.0350   -2.2450 C.2     1  UNL1        0.2706
      3  N1         4.8100    2.5180   -3.0080 N.am    1  UNL1       -0.1481
      4  F1         4.6120    3.2230   -4.1680 F       1  UNL1       -0.1090
      5  C2         3.8950    1.2900   -1.0190 C.ar    1  UNL1        0.0395
      6  C3         5.1380    1.1820   -0.4530 C.ar    1  UNL1       -0.0495
      7  C4         5.3410    0.4650    0.7340 C.ar    1  UNL1       -0.0605
      8  C5         4.2270   -0.1190    1.2910 C.ar    1  UNL1       -0.0540
      9  C6         2.9610   -0.0210    0.7330 C.ar    1  UNL1       -0.0172
     10  C7         1.8700   -0.6920    1.4320 C.ar    1  UNL1       -0.0176
     11  C8         1.8210   -0.8440    2.7980 C.ar    1  UNL1       -0.0540
     12  C9         0.7830   -1.4850    3.4390 C.ar    1  UNL1       -0.0609
     13  C10       -0.2710   -2.0120    2.7360 C.ar    1  UNL1       -0.0582
     14  C11       -0.2370   -1.8660    1.3420 C.ar    1  UNL1       -0.0409
     15  C12       -1.3960   -2.4720    0.5990 C.3     1  UNL1        0.0168
     16  C13       -2.5900   -1.6310    0.6900 C.ar    1  UNL1        0.0693
     17  N2        -3.5610   -1.9390    1.6180 N.ar    1  UNL1       -0.1753
     18  N3        -4.6180   -1.1630    1.7230 N.ar    1  UNL1       -0.2427
     19  C14       -4.8280   -0.0750    0.9830 C.ar    1  UNL1        0.2682
     20  O2        -5.8580    0.6620    1.1030 O.2     1  UNL1       -0.2661
     21  C15       -3.8480    0.2520    0.0330 C.ar    1  UNL1        0.0232
     22  C16       -2.7260   -0.5350   -0.1100 C.ar    1  UNL1       -0.0158
     23  C17       -1.7510   -0.1810   -1.1300 C.3     1  UNL1       -0.0255
     24  C18       -2.5850    0.2380   -2.3610 C.3     1  UNL1       -0.0487
     25  C19       -3.3480    1.4840   -2.0900 C.3     1  UNL1       -0.0486
     26  C20       -4.0540    1.4530   -0.7760 C.3     1  UNL1       -0.0222
     27  C21        0.7980   -1.2280    0.7080 C.ar    1  UNL1       -0.0505
     28  C22        2.7950    0.6790   -0.4170 C.ar    1  UNL1       -0.0418
     29 H           5.7295    2.3454   -2.7013 H       1  UNL1        0.1882
     30 H           5.9424    1.6386   -0.9107 H       1  UNL1        0.0625
     31 H           6.2743    0.3799    1.1661 H       1  UNL1        0.0618
     32 H           4.3385   -0.6555    2.1655 H       1  UNL1        0.0624
     33 H           2.5932   -0.4624    3.3663 H       1  UNL1        0.0624
     34 H           0.7987   -1.5703    4.4674 H       1  UNL1        0.0618
     35 H          -1.0512   -2.4927    3.2105 H       1  UNL1        0.0620
     36 H          -1.6141   -3.4320    1.0183 H       1  UNL1        0.0377
     37 H          -1.1248   -2.5595   -0.4324 H       1  UNL1        0.0377
     38 H          -5.2990   -1.4019    2.3927 H       1  UNL1        0.1921
     39 H          -1.1319   -1.0215   -1.3649 H       1  UNL1        0.0314
     40 H          -1.0984    0.6019   -0.8043 H       1  UNL1        0.0314
     41 H          -3.2712   -0.5468   -2.6020 H       1  UNL1        0.0268
     42 H          -1.9184    0.4181   -3.1784 H       1  UNL1        0.0268
     43 H          -4.0735    1.6165   -2.8653 H       1  UNL1        0.0269
     44 H          -2.6472    2.2921   -2.0612 H       1  UNL1        0.0269
     45 H          -3.7202    2.2940   -0.2048 H       1  UNL1        0.0315
     46 H          -5.0983    1.4692   -1.0085 H       1  UNL1        0.0315
     47 H           0.7867   -1.1414   -0.3203 H       1  UNL1        0.0626
     48 H           1.8592    0.7591   -0.8446 H       1  UNL1        0.0631
@<TRIPOS>BOND
     1     1     2    2
     2     2     3   am
     3     2     5    1
     4     3     4    1
     5     5     6   ar
     6     5    28   ar
     7     6     7   ar
     8     7     8   ar
     9     8     9   ar
    10     9    10    1
    11     9    28   ar
    12    10    11   ar
    13    10    27   ar
    14    11    12   ar
    15    12    13   ar
    16    13    14   ar
    17    14    15    1
    18    14    27   ar
    19    15    16    1
    20    16    17   ar
    21    16    22   ar
    22    17    18   ar
    23    18    19   ar
    24    19    20    2
    25    19    21   ar
    26    21    22   ar
    27    21    26    1
    28    22    23    1
    29    23    24    1
    30    24    25    1
    31    25    26    1
    32     3    29    1
    33     6    30    1
    34     7    31    1
    35     8    32    1
    36    11    33    1
    37    12    34    1
    38    13    35    1
    39    15    36    1
    40    15    37    1
    41    18    38    1
    42    23    39    1
    43    23    40    1
    44    24    41    1
    45    24    42    1
    46    25    43    1
    47    25    44    1
    48    26    45    1
    49    26    46    1
    50    27    47    1
    51    28    48    1
@<TRIPOS>MOLECULE
../data/bude_mols_rdkit_confs2/molecule_80.pdb
 48 51 0 0 0
SMALL
GASTEIGER

@<TRIPOS>ATOM
      1  O1         3.7310    3.1160   -1.0820 O.2     1  UNL1       -0.2679
      2  C1         4.8110    2.4380   -1.1830 C.2     1  UNL1        0.2706
      3  N1         6.0130    3.0900   -1.4870 N.am    1  UNL1       -0.1481
      4  F1         5.9520    4.4410   -1.6610 F       1  UNL1       -0.1090
      5  C2         4.7910    0.9940   -0.9820 C.ar    1  UNL1        0.0395
      6  C3         5.8940    0.1940   -1.1010 C.ar    1  UNL1       -0.0495
      7  C4         5.8310   -1.1710   -0.9020 C.ar    1  UNL1       -0.0605
      8  C5         4.6510   -1.7970   -0.5730 C.ar    1  UNL1       -0.0540
      9  C6         3.5080   -1.0110   -0.4430 C.ar    1  UNL1       -0.0172
     10  C7         2.2530   -1.6490   -0.0950 C.ar    1  UNL1       -0.0176
     11  C8         2.2370   -2.7670    0.7060 C.ar    1  UNL1       -0.0540
     12  C9         1.0260   -3.3830    1.0440 C.ar    1  UNL1       -0.0609
     13  C10       -0.1450   -2.8280    0.5430 C.ar    1  UNL1       -0.0582
     14  C11       -0.1550   -1.7110   -0.2610 C.ar    1  UNL1       -0.0409
     15  C12       -1.4240   -1.1650   -0.7630 C.3     1  UNL1        0.0168
     16  C13       -2.0030   -0.1610    0.1370 C.ar    1  UNL1        0.0693
     17  N2        -1.3420    0.1450    1.2640 N.ar    1  UNL1       -0.1753
     18  N3        -1.8200    1.0510    2.1180 N.ar    1  UNL1       -0.2427
     19  C14       -2.9790    1.7180    1.9240 C.ar    1  UNL1        0.2682
     20  O2        -3.4320    2.5720    2.7270 O.2     1  UNL1       -0.2661
     21  C15       -3.6910    1.4380    0.7840 C.ar    1  UNL1        0.0232
     22  C16       -3.1740    0.4850   -0.1020 C.ar    1  UNL1       -0.0158
     23  C17       -3.9680    0.2220   -1.3010 C.3     1  UNL1       -0.0255
     24  C18       -5.3900   -0.0400   -0.9180 C.3     1  UNL1       -0.0487
     25  C19       -5.9200    0.9190    0.0910 C.3     1  UNL1       -0.0486
     26  C20       -4.9760    2.0690    0.4100 C.3     1  UNL1       -0.0222
     27  C21        1.0630   -1.1390   -0.5660 C.ar    1  UNL1       -0.0505
     28  C22        3.5990    0.3470   -0.6470 C.ar    1  UNL1       -0.0418
     29 H           6.8608    2.5966   -1.5710 H       1  UNL1        0.1882
     30 H           6.7998    0.6231   -1.3467 H       1  UNL1        0.0625
     31 H           6.6895   -1.7349   -1.0025 H       1  UNL1        0.0618
     32 H           4.6136   -2.8179   -0.4269 H       1  UNL1        0.0624
     33 H           3.1250   -3.1550    1.0608 H       1  UNL1        0.0624
     34 H           1.0039   -4.2214    1.6453 H       1  UNL1        0.0618
     35 H          -1.0450   -3.2719    0.7838 H       1  UNL1        0.0620
     36 H          -2.1221   -1.9682   -0.8745 H       1  UNL1        0.0377
     37 H          -1.2223   -0.6841   -1.6973 H       1  UNL1        0.0377
     38 H          -1.3013    1.2439    2.9323 H       1  UNL1        0.1921
     39 H          -3.5731   -0.6334   -1.8083 H       1  UNL1        0.0314
     40 H          -3.9267    1.0742   -1.9467 H       1  UNL1        0.0314
     41 H          -5.4550   -1.0282   -0.5129 H       1  UNL1        0.0268
     42 H          -5.9806    0.0756   -1.8027 H       1  UNL1        0.0268
     43 H          -6.1134    0.3820    0.9960 H       1  UNL1        0.0269
     44 H          -6.8036    1.3522   -0.3290 H       1  UNL1        0.0269
     45 H          -4.8484    2.6961   -0.4475 H       1  UNL1        0.0315
     46 H          -5.3568    2.6870    1.1961 H       1  UNL1        0.0315
     47 H           1.0833   -0.3006   -1.1674 H       1  UNL1        0.0626
     48 H           2.7438    0.9159   -0.5475 H       1  UNL1        0.0631
@<TRIPOS>BOND
     1     1     2    2
     2     2     3   am
     3     2     5    1
     4     3     4    1
     5     5     6   ar
     6     5    28   ar
     7     6     7   ar
     8     7     8   ar
     9     8     9   ar
    10     9    10    1
    11     9    28   ar
    12    10    11   ar
    13    10    27   ar
    14    11    12   ar
    15    12    13   ar
    16    13    14   ar
    17    14    15    1
    18    14    27   ar
    19    15    16    1
    20    16    17   ar
    21    16    22   ar
    22    17    18   ar
    23    18    19   ar
    24    19    20    2
    25    19    21   ar
    26    21    22   ar
    27    21    26    1
    28    22    23    1
    29    23    24    1
    30    24    25    1
    31    25    26    1
    32     3    29    1
    33     6    30    1
    34     7    31    1
    35     8    32    1
    36    11    33    1
    37    12    34    1
    38    13    35    1
    39    15    36    1
    40    15    37    1
    41    18    38    1
    42    23    39    1
    43    23    40    1
    44    24    41    1
    45    24    42    1
    46    25    43    1
    47    25    44    1
    48    26    45    1
    49    26    46    1
    50    27    47    1
    51    28    48    1
@<TRIPOS>MOLECULE
../data/bude_mols_rdkit_confs2/molecule_80.pdb
 48 51 0 0 0
SMALL
GASTEIGER

@<TRIPOS>ATOM
      1  O1         4.3120    2.6440   -1.3640 O.2     1  UNL1       -0.2679
      2  C1         5.1600    2.0670   -0.6160 C.2     1  UNL1        0.2706
      3  N1         6.3830    2.7190   -0.3760 N.am    1  UNL1       -0.1481
      4  F1         6.6710    3.9390   -0.9220 F       1  UNL1       -0.1090
      5  C2         4.8200    0.7770   -0.0570 C.ar    1  UNL1        0.0395
      6  C3         5.7920   -0.0100    0.5070 C.ar    1  UNL1       -0.0495
      7  C4         5.4570   -1.2530    1.0460 C.ar    1  UNL1       -0.0605
      8  C5         4.1370   -1.6830    1.0040 C.ar    1  UNL1       -0.0540
      9  C6         3.1420   -0.9080    0.4410 C.ar    1  UNL1       -0.0172
     10  C7         1.7630   -1.3760    0.3940 C.ar    1  UNL1       -0.0176
     11  C8         1.2880   -2.2090    1.4040 C.ar    1  UNL1       -0.0540
     12  C9        -0.0140   -2.6620    1.3850 C.ar    1  UNL1       -0.0609
     13  C10       -0.8510   -2.2650    0.3270 C.ar    1  UNL1       -0.0582
     14  C11       -0.4250   -1.4580   -0.6670 C.ar    1  UNL1       -0.0409
     15  C12       -1.2700   -1.0190   -1.7800 C.3     1  UNL1        0.0168
     16  C13       -1.9580    0.2210   -1.4550 C.ar    1  UNL1        0.0693
     17  N2        -1.3540    1.3910   -1.7340 N.ar    1  UNL1       -0.1753
     18  N3        -1.8330    2.5830   -1.4260 N.ar    1  UNL1       -0.2427
     19  C14       -3.0110    2.6580   -0.7850 C.ar    1  UNL1        0.2682
     20  O2        -3.4620    3.7940   -0.4940 O.2     1  UNL1       -0.2661
     21  C15       -3.6740    1.4960   -0.4760 C.ar    1  UNL1        0.0232
     22  C16       -3.1430    0.2440   -0.8160 C.ar    1  UNL1       -0.0158
     23  C17       -4.0020   -0.9000   -0.4680 C.3     1  UNL1       -0.0255
     24  C18       -4.3700   -0.8470    1.0050 C.3     1  UNL1       -0.0487
     25  C19       -4.8600    0.5320    1.3930 C.3     1  UNL1       -0.0486
     26  C20       -4.9750    1.4830    0.2380 C.3     1  UNL1       -0.0222
     27  C21        0.9130   -1.0050   -0.6290 C.ar    1  UNL1       -0.0505
     28  C22        3.4950    0.3140   -0.0830 C.ar    1  UNL1       -0.0418
     29 H           7.0510    2.2843    0.2019 H       1  UNL1        0.1882
     30 H           6.7705    0.3170    0.5327 H       1  UNL1        0.0625
     31 H           6.1844   -1.8480    1.4724 H       1  UNL1        0.0618
     32 H           3.8939   -2.6032    1.4029 H       1  UNL1        0.0624
     33 H           1.9161   -2.4896    2.1733 H       1  UNL1        0.0624
     34 H          -0.3673   -3.2800    2.1322 H       1  UNL1        0.0618
     35 H          -1.8260   -2.6030    0.3102 H       1  UNL1        0.0620
     36 H          -1.9955   -1.7773   -1.9887 H       1  UNL1        0.0377
     37 H          -0.6480   -0.8499   -2.6340 H       1  UNL1        0.0377
     38 H          -1.3366    3.3999   -1.6615 H       1  UNL1        0.1921
     39 H          -3.4775   -1.8106   -0.6693 H       1  UNL1        0.0314
     40 H          -4.8961   -0.8579   -1.0542 H       1  UNL1        0.0314
     41 H          -3.5074   -1.0892    1.5900 H       1  UNL1        0.0268
     42 H          -5.1554   -1.5509    1.1855 H       1  UNL1        0.0268
     43 H          -4.1749    0.9456    2.1032 H       1  UNL1        0.0269
     44 H          -5.8442    0.4105    1.7948 H       1  UNL1        0.0269
     45 H          -5.7497    1.1577   -0.4245 H       1  UNL1        0.0315
     46 H          -5.2173    2.4649    0.5874 H       1  UNL1        0.0315
     47 H           1.2607   -0.3865   -1.3784 H       1  UNL1        0.0626
     48 H           2.7649    0.9073   -0.5073 H       1  UNL1        0.0631
@<TRIPOS>BOND
     1     1     2    2
     2     2     3   am
     3     2     5    1
     4     3     4    1
     5     5     6   ar
     6     5    28   ar
     7     6     7   ar
     8     7     8   ar
     9     8     9   ar
    10     9    10    1
    11     9    28   ar
    12    10    11   ar
    13    10    27   ar
    14    11    12   ar
    15    12    13   ar
    16    13    14   ar
    17    14    15    1
    18    14    27   ar
    19    15    16    1
    20    16    17   ar
    21    16    22   ar
    22    17    18   ar
    23    18    19   ar
    24    19    20    2
    25    19    21   ar
    26    21    22   ar
    27    21    26    1
    28    22    23    1
    29    23    24    1
    30    24    25    1
    31    25    26    1
    32     3    29    1
    33     6    30    1
    34     7    31    1
    35     8    32    1
    36    11    33    1
    37    12    34    1
    38    13    35    1
    39    15    36    1
    40    15    37    1
    41    18    38    1
    42    23    39    1
    43    23    40    1
    44    24    41    1
    45    24    42    1
    46    25    43    1
    47    25    44    1
    48    26    45    1
    49    26    46    1
    50    27    47    1
    51    28    48    1
@<TRIPOS>MOLECULE
../data/bude_mols_rdkit_confs2/molecule_80.pdb
 48 51 0 0 0
SMALL
GASTEIGER

@<TRIPOS>ATOM
      1  O1         5.4450    2.2900    1.7690 O.2     1  UNL1       -0.2679
      2  C1         6.0660    1.8650    0.7330 C.2     1  UNL1        0.2706
      3  N1         7.3130    2.4410    0.4390 N.am    1  UNL1       -0.1481
      4  F1         7.8780    3.4140    1.1980 F       1  UNL1       -0.1090
      5  C2         5.4630    0.8140   -0.0940 C.ar    1  UNL1        0.0395
      6  C3         6.2230    0.1930   -1.0550 C.ar    1  UNL1       -0.0495
      7  C4         5.5940   -0.7970   -1.8190 C.ar    1  UNL1       -0.0605
      8  C5         4.2780   -1.1220   -1.6070 C.ar    1  UNL1       -0.0540
      9  C6         3.5140   -0.5030   -0.6460 C.ar    1  UNL1       -0.0172
     10  C7         2.0930   -0.8500   -0.4220 C.ar    1  UNL1       -0.0176
     11  C8         1.6440   -2.1370   -0.6340 C.ar    1  UNL1       -0.0540
     12  C9         0.3240   -2.4490   -0.4300 C.ar    1  UNL1       -0.0609
     13  C10       -0.5440   -1.4370   -0.0050 C.ar    1  UNL1       -0.0582
     14  C11       -0.1530   -0.1440    0.2190 C.ar    1  UNL1       -0.0409
     15  C12       -1.0410    0.9700    0.6430 C.3     1  UNL1        0.0168
     16  C13       -2.2310    0.4830    1.3390 C.ar    1  UNL1        0.0693
     17  N2        -2.2620    0.4090    2.7030 N.ar    1  UNL1       -0.1753
     18  N3        -3.3160   -0.0550    3.3530 N.ar    1  UNL1       -0.2427
     19  C14       -4.4150   -0.4810    2.7260 C.ar    1  UNL1        0.2682
     20  O2        -5.4290   -0.9270    3.3200 O.2     1  UNL1       -0.2661
     21  C15       -4.4410   -0.4300    1.3680 C.ar    1  UNL1        0.0232
     22  C16       -3.3310    0.0600    0.6750 C.ar    1  UNL1       -0.0158
     23  C17       -3.4280    0.1250   -0.7850 C.3     1  UNL1       -0.0255
     24  C18       -4.7200    0.9040   -1.0760 C.3     1  UNL1       -0.0487
     25  C19       -5.9070    0.2720   -0.4380 C.3     1  UNL1       -0.0486
     26  C20       -5.5750   -0.8580    0.5110 C.3     1  UNL1       -0.0222
     27  C21        1.2100    0.1150   -0.0060 C.ar    1  UNL1       -0.0505
     28  C22        4.1190    0.4690    0.1100 C.ar    1  UNL1       -0.0418
     29 H           7.8003    2.1238   -0.3554 H       1  UNL1        0.1882
     30 H           7.2123    0.4447   -1.2068 H       1  UNL1        0.0625
     31 H           6.1278   -1.2895   -2.5522 H       1  UNL1        0.0618
     32 H           3.8465   -1.8568   -2.1892 H       1  UNL1        0.0624
     33 H           2.3030   -2.8670   -0.9469 H       1  UNL1        0.0624
     34 H          -0.0214   -3.4088   -0.5865 H       1  UNL1        0.0618
     35 H          -1.5354   -1.6790    0.1484 H       1  UNL1        0.0620
     36 H          -1.3469    1.5178   -0.2238 H       1  UNL1        0.0377
     37 H          -0.4928    1.5927    1.3188 H       1  UNL1        0.0377
     38 H          -3.2893   -0.0875    4.3366 H       1  UNL1        0.1921
     39 H          -3.4833   -0.8595   -1.2003 H       1  UNL1        0.0314
     40 H          -2.5724    0.5987   -1.2191 H       1  UNL1        0.0314
     41 H          -4.8729    0.9366   -2.1345 H       1  UNL1        0.0268
     42 H          -4.6113    1.8882   -0.6706 H       1  UNL1        0.0268
     43 H          -6.5375   -0.1141   -1.2115 H       1  UNL1        0.0269
     44 H          -6.3830    1.0324    0.1452 H       1  UNL1        0.0269
     45 H          -6.4257   -1.0798    1.1209 H       1  UNL1        0.0315
     46 H          -5.3093   -1.7358   -0.0401 H       1  UNL1        0.0315
     47 H           1.5623    1.0726    0.1483 H       1  UNL1        0.0626
     48 H           3.5760    0.9544    0.8411 H       1  UNL1        0.0631
@<TRIPOS>BOND
     1     1     2    2
     2     2     3   am
     3     2     5    1
     4     3     4    1
     5     5     6   ar
     6     5    28   ar
     7     6     7   ar
     8     7     8   ar
     9     8     9   ar
    10     9    10    1
    11     9    28   ar
    12    10    11   ar
    13    10    27   ar
    14    11    12   ar
    15    12    13   ar
    16    13    14   ar
    17    14    15    1
    18    14    27   ar
    19    15    16    1
    20    16    17   ar
    21    16    22   ar
    22    17    18   ar
    23    18    19   ar
    24    19    20    2
    25    19    21   ar
    26    21    22   ar
    27    21    26    1
    28    22    23    1
    29    23    24    1
    30    24    25    1
    31    25    26    1
    32     3    29    1
    33     6    30    1
    34     7    31    1
    35     8    32    1
    36    11    33    1
    37    12    34    1
    38    13    35    1
    39    15    36    1
    40    15    37    1
    41    18    38    1
    42    23    39    1
    43    23    40    1
    44    24    41    1
    45    24    42    1
    46    25    43    1
    47    25    44    1
    48    26    45    1
    49    26    46    1
    50    27    47    1
    51    28    48    1
@<TRIPOS>MOLECULE
../data/bude_mols_rdkit_confs2/molecule_80.pdb
 48 51 0 0 0
SMALL
GASTEIGER

@<TRIPOS>ATOM
      1  O1         7.3670   -1.7210   -0.9340 O.2     1  UNL1       -0.2679
      2  C1         6.5480   -0.8670   -0.4780 C.2     1  UNL1        0.2706
      3  N1         7.0990    0.3040    0.0800 N.am    1  UNL1       -0.1481
      4  F1         8.4370    0.5320    0.1410 F       1  UNL1       -0.1090
      5  C2         5.1070   -1.1090   -0.5410 C.ar    1  UNL1        0.0395
      6  C3         4.6390   -2.2820   -1.1480 C.ar    1  UNL1       -0.0495
      7  C4         3.2860   -2.5320   -1.2190 C.ar    1  UNL1       -0.0605
      8  C5         2.3430   -1.6650   -0.7110 C.ar    1  UNL1       -0.0540
      9  C6         2.7960   -0.5060   -0.1110 C.ar    1  UNL1       -0.0172
     10  C7         1.8990    0.4790    0.4630 C.ar    1  UNL1       -0.0176
     11  C8         2.2070    1.8190    0.4770 C.ar    1  UNL1       -0.0540
     12  C9         1.3440    2.7500    1.0290 C.ar    1  UNL1       -0.0609
     13  C10        0.1560    2.3260    1.5730 C.ar    1  UNL1       -0.0582
     14  C11       -0.1980    0.9870    1.5810 C.ar    1  UNL1       -0.0409
     15  C12       -1.5080    0.6440    2.2150 C.3     1  UNL1        0.0168
     16  C13       -2.6110    0.9820    1.3420 C.ar    1  UNL1        0.0693
     17  N2        -3.2540    2.1740    1.5590 N.ar    1  UNL1       -0.1753
     18  N3        -4.2360    2.6070    0.8240 N.ar    1  UNL1       -0.2427
     19  C14       -4.7340    1.9410   -0.2280 C.ar    1  UNL1        0.2682
     20  O2        -5.6730    2.3590   -0.9280 O.2     1  UNL1       -0.2661
     21  C15       -4.1170    0.7180   -0.4970 C.ar    1  UNL1        0.0232
     22  C16       -3.0790    0.2580    0.2800 C.ar    1  UNL1       -0.0158
     23  C17       -2.5070   -1.0400   -0.0380 C.3     1  UNL1       -0.0255
     24  C18       -3.6460   -2.0310   -0.2320 C.3     1  UNL1       -0.0487
     25  C19       -4.6500   -1.5500   -1.2050 C.3     1  UNL1       -0.0486
     26  C20       -4.5500   -0.1300   -1.6370 C.3     1  UNL1       -0.0222
     27  C21        0.6750    0.1040    1.0310 C.ar    1  UNL1       -0.0505
     28  C22        4.1630   -0.2440   -0.0340 C.ar    1  UNL1       -0.0418
     29 H           6.4880    0.9863    0.4412 H       1  UNL1        0.1882
     30 H           5.3093   -2.9602   -1.5428 H       1  UNL1        0.0625
     31 H           2.9660   -3.4031   -1.6705 H       1  UNL1        0.0618
     32 H           1.3345   -1.8740   -0.7764 H       1  UNL1        0.0624
     33 H           3.0994    2.1370    0.0678 H       1  UNL1        0.0624
     34 H           1.5905    3.7521    1.0318 H       1  UNL1        0.0618
     35 H          -0.4868    3.0204    1.9848 H       1  UNL1        0.0620
     36 H          -1.6069    1.1888    3.1306 H       1  UNL1        0.0377
     37 H          -1.5311   -0.4094    2.4011 H       1  UNL1        0.0377
     38 H          -4.6378    3.4759    1.0539 H       1  UNL1        0.1921
     39 H          -1.8781   -1.3645    0.7646 H       1  UNL1        0.0314
     40 H          -1.9196   -0.9750   -0.9300 H       1  UNL1        0.0314
     41 H          -4.1283   -2.1894    0.7099 H       1  UNL1        0.0268
     42 H          -3.2281   -2.9385   -0.6151 H       1  UNL1        0.0268
     43 H          -5.6159   -1.6857   -0.7650 H       1  UNL1        0.0269
     44 H          -4.4719   -2.1219   -2.0916 H       1  UNL1        0.0269
     45 H          -3.8356   -0.0501   -2.4296 H       1  UNL1        0.0315
     46 H          -5.5084    0.2020   -1.9778 H       1  UNL1        0.0315
     47 H           0.4230   -0.8968    1.0316 H       1  UNL1        0.0626
     48 H           4.4784    0.6282    0.4185 H       1  UNL1        0.0631
@<TRIPOS>BOND
     1     1     2    2
     2     2     3   am
     3     2     5    1
     4     3     4    1
     5     5     6   ar
     6     5    28   ar
     7     6     7   ar
     8     7     8   ar
     9     8     9   ar
    10     9    10    1
    11     9    28   ar
    12    10    11   ar
    13    10    27   ar
    14    11    12   ar
    15    12    13   ar
    16    13    14   ar
    17    14    15    1
    18    14    27   ar
    19    15    16    1
    20    16    17   ar
    21    16    22   ar
    22    17    18   ar
    23    18    19   ar
    24    19    20    2
    25    19    21   ar
    26    21    22   ar
    27    21    26    1
    28    22    23    1
    29    23    24    1
    30    24    25    1
    31    25    26    1
    32     3    29    1
    33     6    30    1
    34     7    31    1
    35     8    32    1
    36    11    33    1
    37    12    34    1
    38    13    35    1
    39    15    36    1
    40    15    37    1
    41    18    38    1
    42    23    39    1
    43    23    40    1
    44    24    41    1
    45    24    42    1
    46    25    43    1
    47    25    44    1
    48    26    45    1
    49    26    46    1
    50    27    47    1
    51    28    48    1
@<TRIPOS>MOLECULE
../data/bude_mols_rdkit_confs2/molecule_80.pdb
 48 51 0 0 0
SMALL
GASTEIGER

@<TRIPOS>ATOM
      1  O1         4.7090   -2.8160   -1.6080 O.2     1  UNL1       -0.2679
      2  C1         5.5110   -1.8290   -1.5630 C.2     1  UNL1        0.2706
      3  N1         6.7630   -1.9270   -2.2180 N.am    1  UNL1       -0.1481
      4  F1         7.0950   -3.0620   -2.8830 F       1  UNL1       -0.1090
      5  C2         5.1260   -0.6260   -0.8410 C.ar    1  UNL1        0.0395
      6  C3         5.9160    0.4930   -0.7710 C.ar    1  UNL1       -0.0495
      7  C4         5.5200    1.6380   -0.0680 C.ar    1  UNL1       -0.0605
      8  C5         4.2980    1.6090    0.5580 C.ar    1  UNL1       -0.0540
      9  C6         3.4600    0.5110    0.5220 C.ar    1  UNL1       -0.0172
     10  C7         2.1840    0.5510    1.2070 C.ar    1  UNL1       -0.0176
     11  C8         2.0800    1.3070    2.3670 C.ar    1  UNL1       -0.0540
     12  C9         0.8900    1.3810    3.0590 C.ar    1  UNL1       -0.0609
     13  C10       -0.1890    0.6820    2.5620 C.ar    1  UNL1       -0.0582
     14  C11       -0.1170   -0.0830    1.4040 C.ar    1  UNL1       -0.0409
     15  C12       -1.3390   -0.8000    0.9500 C.3     1  UNL1        0.0168
     16  C13       -2.0820    0.1230    0.0310 C.ar    1  UNL1        0.0693
     17  N2        -1.6310    1.3530   -0.2730 N.ar    1  UNL1       -0.1753
     18  N3        -2.2720    2.1830   -1.0830 N.ar    1  UNL1       -0.2427
     19  C14       -3.4150    1.8110   -1.6360 C.ar    1  UNL1        0.2682
     20  O2        -3.9920    2.6280   -2.4010 O.2     1  UNL1       -0.2661
     21  C15       -3.9270    0.5620   -1.3630 C.ar    1  UNL1        0.0232
     22  C16       -3.2500   -0.3100   -0.5090 C.ar    1  UNL1       -0.0158
     23  C17       -3.8690   -1.6190   -0.2730 C.3     1  UNL1       -0.0255
     24  C18       -5.3340   -1.3660    0.0750 C.3     1  UNL1       -0.0487
     25  C19       -6.0650   -0.6220   -0.9940 C.3     1  UNL1       -0.0486
     26  C20       -5.1880    0.1120   -1.9550 C.3     1  UNL1       -0.0222
     27  C21        1.0850   -0.1200    0.7600 C.ar    1  UNL1       -0.0505
     28  C22        3.9010   -0.5810   -0.1810 C.ar    1  UNL1       -0.0418
     29 H           7.3929   -1.1709   -2.1907 H       1  UNL1        0.1882
     30 H           6.8297    0.4913   -1.2507 H       1  UNL1        0.0625
     31 H           6.1246    2.4731   -0.0221 H       1  UNL1        0.0618
     32 H           3.9916    2.4455    1.0791 H       1  UNL1        0.0624
     33 H           2.9045    1.8203    2.7158 H       1  UNL1        0.0624
     34 H           0.8096    1.9418    3.9216 H       1  UNL1        0.0618
     35 H          -1.0861    0.7286    3.0700 H       1  UNL1        0.0620
     36 H          -1.9510   -1.0497    1.7915 H       1  UNL1        0.0377
     37 H          -1.0804   -1.7082    0.4469 H       1  UNL1        0.0377
     38 H          -1.8988    3.0740   -1.2728 H       1  UNL1        0.1921
     39 H          -3.3794   -2.1157    0.5385 H       1  UNL1        0.0314
     40 H          -3.7851   -2.2419   -1.1390 H       1  UNL1        0.0314
     41 H          -5.3765   -0.7947    0.9787 H       1  UNL1        0.0268
     42 H          -5.8075   -2.3193    0.1840 H       1  UNL1        0.0268
     43 H          -6.7114    0.0888   -0.5229 H       1  UNL1        0.0269
     44 H          -6.5925   -1.3561   -1.5664 H       1  UNL1        0.0269
     45 H          -4.9649   -0.5379   -2.7752 H       1  UNL1        0.0315
     46 H          -5.7213    0.9861   -2.2656 H       1  UNL1        0.0315
     47 H           1.1657   -0.6802   -0.1029 H       1  UNL1        0.0626
     48 H           3.2925   -1.4135   -0.2229 H       1  UNL1        0.0631
@<TRIPOS>BOND
     1     1     2    2
     2     2     3   am
     3     2     5    1
     4     3     4    1
     5     5     6   ar
     6     5    28   ar
     7     6     7   ar
     8     7     8   ar
     9     8     9   ar
    10     9    10    1
    11     9    28   ar
    12    10    11   ar
    13    10    27   ar
    14    11    12   ar
    15    12    13   ar
    16    13    14   ar
    17    14    15    1
    18    14    27   ar
    19    15    16    1
    20    16    17   ar
    21    16    22   ar
    22    17    18   ar
    23    18    19   ar
    24    19    20    2
    25    19    21   ar
    26    21    22   ar
    27    21    26    1
    28    22    23    1
    29    23    24    1
    30    24    25    1
    31    25    26    1
    32     3    29    1
    33     6    30    1
    34     7    31    1
    35     8    32    1
    36    11    33    1
    37    12    34    1
    38    13    35    1
    39    15    36    1
    40    15    37    1
    41    18    38    1
    42    23    39    1
    43    23    40    1
    44    24    41    1
    45    24    42    1
    46    25    43    1
    47    25    44    1
    48    26    45    1
    49    26    46    1
    50    27    47    1
    51    28    48    1
@<TRIPOS>MOLECULE
../data/bude_mols_rdkit_confs2/molecule_80.pdb
 48 51 0 0 0
SMALL
GASTEIGER

@<TRIPOS>ATOM
      1  O1         4.9870    1.5360   -2.8870 O.2     1  UNL1       -0.2679
      2  C1         5.8560    0.9730   -2.1550 C.2     1  UNL1        0.2706
      3  N1         7.2270    0.9700   -2.4980 N.am    1  UNL1       -0.1481
      4  F1         7.5690    1.6030   -3.6580 F       1  UNL1       -0.1090
      5  C2         5.3820    0.3260   -0.9400 C.ar    1  UNL1        0.0395
      6  C3         6.2140   -0.1970    0.0050 C.ar    1  UNL1       -0.0495
      7  C4         5.7570   -0.8240    1.1740 C.ar    1  UNL1       -0.0605
      8  C5         4.4060   -0.8960    1.3370 C.ar    1  UNL1       -0.0540
      9  C6         3.5000   -0.3900    0.4240 C.ar    1  UNL1       -0.0172
     10  C7         2.0410   -0.4990    0.6470 C.ar    1  UNL1       -0.0176
     11  C8         1.5340   -0.4820    1.9280 C.ar    1  UNL1       -0.0540
     12  C9         0.1800   -0.5850    2.1540 C.ar    1  UNL1       -0.0609
     13  C10       -0.6890   -0.7070    1.0620 C.ar    1  UNL1       -0.0582
     14  C11       -0.2120   -0.7260   -0.2220 C.ar    1  UNL1       -0.0409
     15  C12       -1.1370   -0.8520   -1.3650 C.3     1  UNL1        0.0168
     16  C13       -2.5130   -1.0920   -0.8810 C.ar    1  UNL1        0.0693
     17  N2        -3.0140   -2.3680   -0.9260 N.ar    1  UNL1       -0.1753
     18  N3        -4.2310   -2.6440   -0.5060 N.ar    1  UNL1       -0.2427
     19  C14       -5.0280   -1.6740   -0.0150 C.ar    1  UNL1        0.2682
     20  O2        -6.1800   -1.9680    0.3760 O.2     1  UNL1       -0.2661
     21  C15       -4.5940   -0.3670    0.0620 C.ar    1  UNL1        0.0232
     22  C16       -3.2920   -0.0990   -0.3930 C.ar    1  UNL1       -0.0158
     23  C17       -2.8320    1.3050   -0.3200 C.3     1  UNL1       -0.0255
     24  C18       -3.9830    2.1270   -0.9130 C.3     1  UNL1       -0.0487
     25  C19       -5.2440    2.0090   -0.1350 C.3     1  UNL1       -0.0486
     26  C20       -5.4380    0.7220    0.6010 C.3     1  UNL1       -0.0222
     27  C21        1.1670   -0.6200   -0.4080 C.ar    1  UNL1       -0.0505
     28  C22        4.0090    0.2150   -0.7050 C.ar    1  UNL1       -0.0418
     29 H           7.9014    0.5334   -1.9290 H       1  UNL1        0.1882
     30 H           7.2324   -0.1282   -0.1474 H       1  UNL1        0.0625
     31 H           6.4098   -1.2104    1.8737 H       1  UNL1        0.0618
     32 H           4.0400   -1.3525    2.1871 H       1  UNL1        0.0624
     33 H           2.1782   -0.3908    2.7291 H       1  UNL1        0.0624
     34 H          -0.1907   -0.5725    3.1170 H       1  UNL1        0.0618
     35 H          -1.7047   -0.7838    1.2275 H       1  UNL1        0.0620
     36 H          -0.8301   -1.6721   -1.9799 H       1  UNL1        0.0377
     37 H          -1.1185    0.0552   -1.9321 H       1  UNL1        0.0377
     38 H          -4.5628   -3.5698   -0.5511 H       1  UNL1        0.1921
     39 H          -1.9388    1.4391   -0.8936 H       1  UNL1        0.0314
     40 H          -2.5986    1.6015    0.6812 H       1  UNL1        0.0314
     41 H          -4.1654    1.7872   -1.9111 H       1  UNL1        0.0268
     42 H          -3.6873    3.1550   -0.8880 H       1  UNL1        0.0268
     43 H          -6.0615    2.1240   -0.8158 H       1  UNL1        0.0269
     44 H          -5.1929    2.7684    0.6171 H       1  UNL1        0.0269
     45 H          -5.1881    0.8734    1.6303 H       1  UNL1        0.0315
     46 H          -6.4610    0.4304    0.4855 H       1  UNL1        0.0315
     47 H           1.5434   -0.6328   -1.3688 H       1  UNL1        0.0626
     48 H           3.3524    0.5999   -1.4019 H       1  UNL1        0.0631
@<TRIPOS>BOND
     1     1     2    2
     2     2     3   am
     3     2     5    1
     4     3     4    1
     5     5     6   ar
     6     5    28   ar
     7     6     7   ar
     8     7     8   ar
     9     8     9   ar
    10     9    10    1
    11     9    28   ar
    12    10    11   ar
    13    10    27   ar
    14    11    12   ar
    15    12    13   ar
    16    13    14   ar
    17    14    15    1
    18    14    27   ar
    19    15    16    1
    20    16    17   ar
    21    16    22   ar
    22    17    18   ar
    23    18    19   ar
    24    19    20    2
    25    19    21   ar
    26    21    22   ar
    27    21    26    1
    28    22    23    1
    29    23    24    1
    30    24    25    1
    31    25    26    1
    32     3    29    1
    33     6    30    1
    34     7    31    1
    35     8    32    1
    36    11    33    1
    37    12    34    1
    38    13    35    1
    39    15    36    1
    40    15    37    1
    41    18    38    1
    42    23    39    1
    43    23    40    1
    44    24    41    1
    45    24    42    1
    46    25    43    1
    47    25    44    1
    48    26    45    1
    49    26    46    1
    50    27    47    1
    51    28    48    1
@<TRIPOS>MOLECULE
../data/bude_mols_rdkit_confs2/molecule_80.pdb
 48 51 0 0 0
SMALL
GASTEIGER

@<TRIPOS>ATOM
      1  O1         7.2550    0.9630   -2.1640 O.2     1  UNL1       -0.2679
      2  C1         6.4580    0.2770   -1.4540 C.2     1  UNL1        0.2706
      3  N1         6.9970   -0.8590   -0.8160 N.am    1  UNL1       -0.1481
      4  F1         8.3060   -1.2120   -0.9490 F       1  UNL1       -0.1090
      5  C2         5.0730    0.6730   -1.3310 C.ar    1  UNL1        0.0395
      6  C3         4.5900    1.8250   -1.9510 C.ar    1  UNL1       -0.0495
      7  C4         3.2900    2.2440   -1.8670 C.ar    1  UNL1       -0.0605
      8  C5         2.3840    1.5080   -1.1380 C.ar    1  UNL1       -0.0540
      9  C6         2.8230    0.3770   -0.5200 C.ar    1  UNL1       -0.0172
     10  C7         1.8860   -0.4250    0.2610 C.ar    1  UNL1       -0.0176
     11  C8         2.0740   -1.7890    0.3320 C.ar    1  UNL1       -0.0540
     12  C9         1.1830   -2.5340    1.0690 C.ar    1  UNL1       -0.0609
     13  C10        0.1320   -1.9200    1.7150 C.ar    1  UNL1       -0.0582
     14  C11       -0.0830   -0.5690    1.6640 C.ar    1  UNL1       -0.0409
     15  C12       -1.1960    0.0950    2.3270 C.3     1  UNL1        0.0168
     16  C13       -2.2150    0.7170    1.5020 C.ar    1  UNL1        0.0693
     17  N2        -2.1660    2.0710    1.2430 N.ar    1  UNL1       -0.1753
     18  N3        -3.0470    2.6760    0.4730 N.ar    1  UNL1       -0.2427
     19  C14       -4.0630    2.0240   -0.1200 C.ar    1  UNL1        0.2682
     20  O2        -4.8860    2.6500   -0.8520 O.2     1  UNL1       -0.2661
     21  C15       -4.1790    0.6800    0.0900 C.ar    1  UNL1        0.0232
     22  C16       -3.2340    0.0570    0.9100 C.ar    1  UNL1       -0.0158
     23  C17       -3.4530   -1.3780    1.1100 C.3     1  UNL1       -0.0255
     24  C18       -3.5590   -1.9790   -0.3020 C.3     1  UNL1       -0.0487
     25  C19       -4.6860   -1.4090   -1.0820 C.3     1  UNL1       -0.0486
     26  C20       -5.2580   -0.1250   -0.5230 C.3     1  UNL1       -0.0222
     27  C21        0.8280    0.1680    0.9140 C.ar    1  UNL1       -0.0505
     28  C22        4.1510   -0.0440   -0.6100 C.ar    1  UNL1       -0.0418
     29 H           6.4082   -1.4151   -0.2562 H       1  UNL1        0.1882
     30 H           5.2501    2.3935   -2.5043 H       1  UNL1        0.0625
     31 H           2.9907    3.1069   -2.3475 H       1  UNL1        0.0618
     32 H           1.3987    1.8053   -1.0618 H       1  UNL1        0.0624
     33 H           2.8638   -2.2399   -0.1558 H       1  UNL1        0.0624
     34 H           1.3021   -3.5568    1.1384 H       1  UNL1        0.0618
     35 H          -0.5211   -2.5037    2.2607 H       1  UNL1        0.0620
     36 H          -0.7827    0.8599    2.9508 H       1  UNL1        0.0377
     37 H          -1.7112   -0.6943    2.8334 H       1  UNL1        0.0377
     38 H          -2.9581    3.6453    0.3255 H       1  UNL1        0.1921
     39 H          -4.3576   -1.5455    1.6565 H       1  UNL1        0.0314
     40 H          -2.6608   -1.8255    1.6731 H       1  UNL1        0.0314
     41 H          -3.7025   -3.0357   -0.2147 H       1  UNL1        0.0268
     42 H          -2.6538   -1.7452   -0.8224 H       1  UNL1        0.0268
     43 H          -5.4700   -2.1364   -1.1145 H       1  UNL1        0.0269
     44 H          -4.2932   -1.1688   -2.0479 H       1  UNL1        0.0269
     45 H          -5.7133    0.4346   -1.3133 H       1  UNL1        0.0315
     46 H          -5.9900   -0.3593    0.2214 H       1  UNL1        0.0315
     47 H           0.7074    1.1906    0.8448 H       1  UNL1        0.0626
     48 H           4.4440   -0.9076   -0.1270 H       1  UNL1        0.0631
@<TRIPOS>BOND
     1     1     2    2
     2     2     3   am
     3     2     5    1
     4     3     4    1
     5     5     6   ar
     6     5    28   ar
     7     6     7   ar
     8     7     8   ar
     9     8     9   ar
    10     9    10    1
    11     9    28   ar
    12    10    11   ar
    13    10    27   ar
    14    11    12   ar
    15    12    13   ar
    16    13    14   ar
    17    14    15    1
    18    14    27   ar
    19    15    16    1
    20    16    17   ar
    21    16    22   ar
    22    17    18   ar
    23    18    19   ar
    24    19    20    2
    25    19    21   ar
    26    21    22   ar
    27    21    26    1
    28    22    23    1
    29    23    24    1
    30    24    25    1
    31    25    26    1
    32     3    29    1
    33     6    30    1
    34     7    31    1
    35     8    32    1
    36    11    33    1
    37    12    34    1
    38    13    35    1
    39    15    36    1
    40    15    37    1
    41    18    38    1
    42    23    39    1
    43    23    40    1
    44    24    41    1
    45    24    42    1
    46    25    43    1
    47    25    44    1
    48    26    45    1
    49    26    46    1
    50    27    47    1
    51    28    48    1
@<TRIPOS>MOLECULE
../data/bude_mols_rdkit_confs2/molecule_80.pdb
 48 51 0 0 0
SMALL
GASTEIGER

@<TRIPOS>ATOM
      1  O1         6.5900   -0.0920   -1.5280 O.2     1  UNL1       -0.2679
      2  C1         6.3610   -0.5330   -0.3670 C.2     1  UNL1        0.2706
      3  N1         7.4580   -0.9920    0.3960 N.am    1  UNL1       -0.1481
      4  F1         8.7020   -0.9360   -0.1610 F       1  UNL1       -0.1090
      5  C2         5.0170   -0.5720    0.1740 C.ar    1  UNL1        0.0395
      6  C3         4.7640   -1.1790    1.3760 C.ar    1  UNL1       -0.0495
      7  C4         3.4450   -1.1730    1.8270 C.ar    1  UNL1       -0.0605
      8  C5         2.4390   -0.5790    1.0920 C.ar    1  UNL1       -0.0540
      9  C6         2.6880    0.0350   -0.1200 C.ar    1  UNL1       -0.0172
     10  C7         1.6510    0.6720   -0.9250 C.ar    1  UNL1       -0.0176
     11  C8         1.7100    0.7210   -2.2980 C.ar    1  UNL1       -0.0540
     12  C9         0.7430    1.3170   -3.0770 C.ar    1  UNL1       -0.0609
     13  C10       -0.3500    1.9010   -2.4790 C.ar    1  UNL1       -0.0582
     14  C11       -0.4450    1.8690   -1.0800 C.ar    1  UNL1       -0.0409
     15  C12       -1.6410    2.5230   -0.4740 C.3     1  UNL1        0.0168
     16  C13       -2.7660    1.5930   -0.6070 C.ar    1  UNL1        0.0693
     17  N2        -3.6000    1.8220   -1.6590 N.ar    1  UNL1       -0.1753
     18  N3        -4.6340    1.0890   -1.9680 N.ar    1  UNL1       -0.2427
     19  C14       -4.9110    0.0270   -1.2050 C.ar    1  UNL1        0.2682
     20  O2        -5.8990   -0.7020   -1.4730 O.2     1  UNL1       -0.2661
     21  C15       -4.1100   -0.2830   -0.1060 C.ar    1  UNL1        0.0232
     22  C16       -3.0380    0.5210    0.1740 C.ar    1  UNL1       -0.0158
     23  C17       -2.2160    0.2300    1.3280 C.3     1  UNL1       -0.0255
     24  C18       -3.0910   -0.2600    2.4610 C.3     1  UNL1       -0.0487
     25  C19       -3.9910   -1.3800    2.1380 C.3     1  UNL1       -0.0486
     26  C20       -4.4400   -1.4970    0.7280 C.3     1  UNL1       -0.0222
     27  C21        0.5360    1.2680   -0.3250 C.ar    1  UNL1       -0.0505
     28  C22        3.9920    0.0290   -0.5670 C.ar    1  UNL1       -0.0418
     29 H           7.3279   -1.3433    1.3064 H       1  UNL1        0.1882
     30 H           5.5179   -1.6218    1.9242 H       1  UNL1        0.0625
     31 H           3.2163   -1.6214    2.7279 H       1  UNL1        0.0618
     32 H           1.4742   -0.5940    1.4581 H       1  UNL1        0.0624
     33 H           2.5204    0.2891   -2.7689 H       1  UNL1        0.0624
     34 H           0.8378    1.3255   -4.1046 H       1  UNL1        0.0618
     35 H          -1.0836    2.3526   -3.0473 H       1  UNL1        0.0620
     36 H          -1.8585    3.4355   -0.9886 H       1  UNL1        0.0377
     37 H          -1.4630    2.7546    0.5553 H       1  UNL1        0.0377
     38 H          -5.1966    1.3126   -2.7443 H       1  UNL1        0.1921
     39 H          -1.7021    1.1177    1.6327 H       1  UNL1        0.0314
     40 H          -1.5028   -0.5267    1.0757 H       1  UNL1        0.0314
     41 H          -3.6935    0.5611    2.7891 H       1  UNL1        0.0268
     42 H          -2.4196   -0.6326    3.2062 H       1  UNL1        0.0268
     43 H          -4.8644   -1.2788    2.7478 H       1  UNL1        0.0269
     44 H          -3.4140   -2.2624    2.3206 H       1  UNL1        0.0269
     45 H          -3.9647   -2.3496    0.2898 H       1  UNL1        0.0315
     46 H          -5.5057   -1.5923    0.7415 H       1  UNL1        0.0315
     47 H           0.4478    1.2566    0.7032 H       1  UNL1        0.0626
     48 H           4.2180    0.4777   -1.4684 H       1  UNL1        0.0631
@<TRIPOS>BOND
     1     1     2    2
     2     2     3   am
     3     2     5    1
     4     3     4    1
     5     5     6   ar
     6     5    28   ar
     7     6     7   ar
     8     7     8   ar
     9     8     9   ar
    10     9    10    1
    11     9    28   ar
    12    10    11   ar
    13    10    27   ar
    14    11    12   ar
    15    12    13   ar
    16    13    14   ar
    17    14    15    1
    18    14    27   ar
    19    15    16    1
    20    16    17   ar
    21    16    22   ar
    22    17    18   ar
    23    18    19   ar
    24    19    20    2
    25    19    21   ar
    26    21    22   ar
    27    21    26    1
    28    22    23    1
    29    23    24    1
    30    24    25    1
    31    25    26    1
    32     3    29    1
    33     6    30    1
    34     7    31    1
    35     8    32    1
    36    11    33    1
    37    12    34    1
    38    13    35    1
    39    15    36    1
    40    15    37    1
    41    18    38    1
    42    23    39    1
    43    23    40    1
    44    24    41    1
    45    24    42    1
    46    25    43    1
    47    25    44    1
    48    26    45    1
    49    26    46    1
    50    27    47    1
    51    28    48    1
@<TRIPOS>MOLECULE
../data/bude_mols_rdkit_confs2/molecule_80.pdb
 48 51 0 0 0
SMALL
GASTEIGER

@<TRIPOS>ATOM
      1  O1         6.6180    0.1650   -1.9730 O.2     1  UNL1       -0.2679
      2  C1         6.6510   -0.5270   -0.9030 C.2     1  UNL1        0.2706
      3  N1         7.8770   -1.0570   -0.4460 N.am    1  UNL1       -0.1481
      4  F1         8.9750   -0.7880   -1.2010 F       1  UNL1       -0.1090
      5  C2         5.3990   -0.7460   -0.1810 C.ar    1  UNL1        0.0395
      6  C3         5.3450   -1.5970    0.8930 C.ar    1  UNL1       -0.0495
      7  C4         4.1230   -1.7720    1.5560 C.ar    1  UNL1       -0.0605
      8  C5         3.0030   -1.1010    1.1360 C.ar    1  UNL1       -0.0540
      9  C6         3.0480   -0.2370    0.0480 C.ar    1  UNL1       -0.0172
     10  C7         1.8640    0.4750   -0.3970 C.ar    1  UNL1       -0.0176
     11  C8         1.7290    0.7740   -1.7310 C.ar    1  UNL1       -0.0540
     12  C9         0.5930    1.4570   -2.1470 C.ar    1  UNL1       -0.0609
     13  C10       -0.3860    1.8250   -1.2110 C.ar    1  UNL1       -0.0582
     14  C11       -0.2480    1.5250    0.1110 C.ar    1  UNL1       -0.0409
     15  C12       -1.2800    1.9040    1.0980 C.3     1  UNL1        0.0168
     16  C13       -2.1510    0.7490    1.3830 C.ar    1  UNL1        0.0693
     17  N2        -1.8370    0.0470    2.5160 N.ar    1  UNL1       -0.1753
     18  N3        -2.4760   -1.0240    2.9110 N.ar    1  UNL1       -0.2427
     19  C14       -3.5150   -1.4580    2.1420 C.ar    1  UNL1        0.2682
     20  O2        -4.1260   -2.4850    2.5210 O.2     1  UNL1       -0.2661
     21  C15       -3.8810   -0.8000    0.9950 C.ar    1  UNL1        0.0232
     22  C16       -3.1950    0.3190    0.6050 C.ar    1  UNL1       -0.0158
     23  C17       -3.5830    1.0440   -0.5920 C.3     1  UNL1       -0.0255
     24  C18       -5.0490    0.9830   -0.9400 C.3     1  UNL1       -0.0487
     25  C19       -5.7900   -0.2080   -0.4800 C.3     1  UNL1       -0.0486
     26  C20       -4.9890   -1.2850    0.1830 C.3     1  UNL1       -0.0222
     27  C21        0.9040    0.8370    0.5100 C.ar    1  UNL1       -0.0505
     28  C22        4.2460   -0.0720   -0.5930 C.ar    1  UNL1       -0.0418
     29 H           7.9339   -1.5939    0.3773 H       1  UNL1        0.1882
     30 H           6.1896   -2.0998    1.2075 H       1  UNL1        0.0625
     31 H           4.0654   -2.4097    2.3653 H       1  UNL1        0.0618
     32 H           2.1112   -1.2400    1.6365 H       1  UNL1        0.0624
     33 H           2.4557    0.4972   -2.4094 H       1  UNL1        0.0624
     34 H           0.4690    1.6937   -3.1438 H       1  UNL1        0.0618
     35 H          -1.2262    2.3323   -1.5300 H       1  UNL1        0.0620
     36 H          -1.8704    2.7048    0.7041 H       1  UNL1        0.0377
     37 H          -0.8031    2.2171    2.0033 H       1  UNL1        0.0377
     38 H          -2.2163   -1.4991    3.7332 H       1  UNL1        0.1921
     39 H          -3.0315    0.6405   -1.4154 H       1  UNL1        0.0314
     40 H          -3.3701    2.0738   -0.3943 H       1  UNL1        0.0314
     41 H          -5.1313    1.0245   -2.0060 H       1  UNL1        0.0268
     42 H          -5.4950    1.8082   -0.4252 H       1  UNL1        0.0268
     43 H          -6.2705   -0.6400   -1.3329 H       1  UNL1        0.0269
     44 H          -6.4572    0.1510    0.2755 H       1  UNL1        0.0269
     45 H          -5.6442   -1.8486    0.8139 H       1  UNL1        0.0315
     46 H          -4.5579   -1.8708   -0.6018 H       1  UNL1        0.0315
     47 H           1.0321    0.5983    1.5058 H       1  UNL1        0.0626
     48 H           4.2993    0.5668   -1.4017 H       1  UNL1        0.0631
@<TRIPOS>BOND
     1     1     2    2
     2     2     3   am
     3     2     5    1
     4     3     4    1
     5     5     6   ar
     6     5    28   ar
     7     6     7   ar
     8     7     8   ar
     9     8     9   ar
    10     9    10    1
    11     9    28   ar
    12    10    11   ar
    13    10    27   ar
    14    11    12   ar
    15    12    13   ar
    16    13    14   ar
    17    14    15    1
    18    14    27   ar
    19    15    16    1
    20    16    17   ar
    21    16    22   ar
    22    17    18   ar
    23    18    19   ar
    24    19    20    2
    25    19    21   ar
    26    21    22   ar
    27    21    26    1
    28    22    23    1
    29    23    24    1
    30    24    25    1
    31    25    26    1
    32     3    29    1
    33     6    30    1
    34     7    31    1
    35     8    32    1
    36    11    33    1
    37    12    34    1
    38    13    35    1
    39    15    36    1
    40    15    37    1
    41    18    38    1
    42    23    39    1
    43    23    40    1
    44    24    41    1
    45    24    42    1
    46    25    43    1
    47    25    44    1
    48    26    45    1
    49    26    46    1
    50    27    47    1
    51    28    48    1
@<TRIPOS>MOLECULE
../data/bude_mols_rdkit_confs2/molecule_80.pdb
 48 51 0 0 0
SMALL
GASTEIGER

@<TRIPOS>ATOM
      1  O1         6.7950   -1.1210   -2.6130 O.2     1  UNL1       -0.2679
      2  C1         6.7880   -1.0810   -1.3370 C.2     1  UNL1        0.2706
      3  N1         7.7840   -1.7970   -0.5990 N.am    1  UNL1       -0.1481
      4  F1         8.7070   -2.4940   -1.2980 F       1  UNL1       -0.1090
      5  C2         5.7690   -0.3100   -0.6400 C.ar    1  UNL1        0.0395
      6  C3         6.1280    0.9160   -0.1480 C.ar    1  UNL1       -0.0495
      7  C4         5.2140    1.6860    0.5200 C.ar    1  UNL1       -0.0605
      8  C5         3.9340    1.2360    0.6980 C.ar    1  UNL1       -0.0540
      9  C6         3.5220   -0.0100    0.2120 C.ar    1  UNL1       -0.0172
     10  C7         2.1500   -0.4320    0.4400 C.ar    1  UNL1       -0.0176
     11  C8         1.8530   -1.7570    0.5980 C.ar    1  UNL1       -0.0540
     12  C9         0.5330   -2.1480    0.8500 C.ar    1  UNL1       -0.0609
     13  C10       -0.4670   -1.1630    0.9370 C.ar    1  UNL1       -0.0582
     14  C11       -0.1910    0.1570    0.7810 C.ar    1  UNL1       -0.0409
     15  C12       -1.2260    1.2030    0.8950 C.3     1  UNL1        0.0168
     16  C13       -2.3110    1.1930   -0.0570 C.ar    1  UNL1        0.0693
     17  N2        -2.1230    1.8150   -1.2630 N.ar    1  UNL1       -0.1753
     18  N3        -3.0070    1.8170   -2.2200 N.ar    1  UNL1       -0.2427
     19  C14       -4.1690    1.1850   -2.0390 C.ar    1  UNL1        0.2682
     20  O2        -5.0040    1.1930   -2.9640 O.2     1  UNL1       -0.2661
     21  C15       -4.4410    0.5230   -0.8280 C.ar    1  UNL1        0.0232
     22  C16       -3.4890    0.5380    0.1630 C.ar    1  UNL1       -0.0158
     23  C17       -3.7870   -0.0760    1.4460 C.3     1  UNL1       -0.0255
     24  C18       -5.3180    0.1330    1.6260 C.3     1  UNL1       -0.0487
     25  C19       -5.9860   -0.7490    0.5920 C.3     1  UNL1       -0.0486
     26  C20       -5.7580   -0.1220   -0.7570 C.3     1  UNL1       -0.0222
     27  C21        1.1450    0.4840    0.5310 C.ar    1  UNL1       -0.0505
     28  C22        4.4730   -0.7510   -0.4520 C.ar    1  UNL1       -0.0418
     29 H           7.7962   -1.7821    0.3853 H       1  UNL1        0.1882
     30 H           7.0914    1.2612   -0.2811 H       1  UNL1        0.0625
     31 H           5.4912    2.6085    0.8904 H       1  UNL1        0.0618
     32 H           3.2568    1.8293    1.2024 H       1  UNL1        0.0624
     33 H           2.5995   -2.4665    0.5317 H       1  UNL1        0.0624
     34 H           0.2967   -3.1454    0.9703 H       1  UNL1        0.0618
     35 H          -1.4396   -1.4523    1.1250 H       1  UNL1        0.0620
     36 H          -0.7333    2.1485    0.8051 H       1  UNL1        0.0377
     37 H          -1.6964    1.0102    1.8365 H       1  UNL1        0.0377
     38 H          -2.8200    2.2801   -3.0684 H       1  UNL1        0.1921
     39 H          -3.2437    0.4057    2.2320 H       1  UNL1        0.0314
     40 H          -3.5087   -1.1086    1.4794 H       1  UNL1        0.0314
     41 H          -5.5748    1.1586    1.4612 H       1  UNL1        0.0268
     42 H          -5.6333   -0.1185    2.6171 H       1  UNL1        0.0268
     43 H          -7.0352   -0.8143    0.7913 H       1  UNL1        0.0269
     44 H          -5.5772   -1.7374    0.6208 H       1  UNL1        0.0269
     45 H          -5.8156   -0.8812   -1.5088 H       1  UNL1        0.0315
     46 H          -6.5090    0.6237   -0.9149 H       1  UNL1        0.0315
     47 H           1.3849    1.4801    0.4078 H       1  UNL1        0.0626
     48 H           4.2068   -1.6755   -0.8254 H       1  UNL1        0.0631
@<TRIPOS>BOND
     1     1     2    2
     2     2     3   am
     3     2     5    1
     4     3     4    1
     5     5     6   ar
     6     5    28   ar
     7     6     7   ar
     8     7     8   ar
     9     8     9   ar
    10     9    10    1
    11     9    28   ar
    12    10    11   ar
    13    10    27   ar
    14    11    12   ar
    15    12    13   ar
    16    13    14   ar
    17    14    15    1
    18    14    27   ar
    19    15    16    1
    20    16    17   ar
    21    16    22   ar
    22    17    18   ar
    23    18    19   ar
    24    19    20    2
    25    19    21   ar
    26    21    22   ar
    27    21    26    1
    28    22    23    1
    29    23    24    1
    30    24    25    1
    31    25    26    1
    32     3    29    1
    33     6    30    1
    34     7    31    1
    35     8    32    1
    36    11    33    1
    37    12    34    1
    38    13    35    1
    39    15    36    1
    40    15    37    1
    41    18    38    1
    42    23    39    1
    43    23    40    1
    44    24    41    1
    45    24    42    1
    46    25    43    1
    47    25    44    1
    48    26    45    1
    49    26    46    1
    50    27    47    1
    51    28    48    1
@<TRIPOS>MOLECULE
../data/bude_mols_rdkit_confs2/molecule_80.pdb
 48 51 0 0 0
SMALL
GASTEIGER

@<TRIPOS>ATOM
      1  O1         5.8380    0.6590    2.4850 O.2     1  UNL1       -0.2679
      2  C1         6.1690    0.8180    1.2570 C.2     1  UNL1        0.2706
      3  N1         7.4470    1.3410    0.9580 N.am    1  UNL1       -0.1481
      4  F1         8.3150    1.6720    1.9440 F       1  UNL1       -0.1090
      5  C2         5.2430    0.4660    0.1930 C.ar    1  UNL1        0.0395
      6  C3         5.5170    0.7170   -1.1230 C.ar    1  UNL1       -0.0495
      7  C4         4.6080    0.3650   -2.1340 C.ar    1  UNL1       -0.0605
      8  C5         3.4220   -0.2440   -1.7710 C.ar    1  UNL1       -0.0540
      9  C6         3.1040   -0.5160   -0.4580 C.ar    1  UNL1       -0.0172
     10  C7         1.8400   -1.1580   -0.1210 C.ar    1  UNL1       -0.0176
     11  C8         1.7220   -2.0000    0.9810 C.ar    1  UNL1       -0.0540
     12  C9         0.5340   -2.5990    1.2930 C.ar    1  UNL1       -0.0609
     13  C10       -0.5670   -2.3520    0.4860 C.ar    1  UNL1       -0.0582
     14  C11       -0.5080   -1.5370   -0.6030 C.ar    1  UNL1       -0.0409
     15  C12       -1.6810   -1.2620   -1.4560 C.3     1  UNL1        0.0168
     16  C13       -2.2910    0.0410   -1.1570 C.ar    1  UNL1        0.0693
     17  N2        -1.9680    1.1040   -1.9180 N.ar    1  UNL1       -0.1753
     18  N3        -2.4340    2.3230   -1.6910 N.ar    1  UNL1       -0.2427
     19  C14       -3.2630    2.5330   -0.6680 C.ar    1  UNL1        0.2682
     20  O2        -3.7100    3.6990   -0.4490 O.2     1  UNL1       -0.2661
     21  C15       -3.6600    1.5010    0.1790 C.ar    1  UNL1        0.0232
     22  C16       -3.1370    0.2290   -0.1080 C.ar    1  UNL1       -0.0158
     23  C17       -3.5840   -0.8620    0.7560 C.3     1  UNL1       -0.0255
     24  C18       -5.0930   -0.6910    0.9740 C.3     1  UNL1       -0.0487
     25  C19       -5.4450    0.5810    1.6690 C.3     1  UNL1       -0.0486
     26  C20       -4.5620    1.7290    1.3180 C.3     1  UNL1       -0.0222
     27  C21        0.7200   -0.9400   -0.8960 C.ar    1  UNL1       -0.0505
     28  C22        4.0270   -0.1530    0.4950 C.ar    1  UNL1       -0.0418
     29 H           7.7110    1.4669    0.0179 H       1  UNL1        0.1882
     30 H           6.4071    1.1730   -1.3776 H       1  UNL1        0.0625
     31 H           4.8210    0.5568   -3.1254 H       1  UNL1        0.0618
     32 H           2.7502   -0.5045   -2.5098 H       1  UNL1        0.0624
     33 H           2.5480   -2.1754    1.5742 H       1  UNL1        0.0624
     34 H           0.4575   -3.2222    2.1120 H       1  UNL1        0.0618
     35 H          -1.4651   -2.8033    0.7201 H       1  UNL1        0.0620
     36 H          -2.4103   -2.0286   -1.2968 H       1  UNL1        0.0377
     37 H          -1.3505   -1.2444   -2.4735 H       1  UNL1        0.0377
     38 H          -2.1695    3.0703   -2.2748 H       1  UNL1        0.1921
     39 H          -3.0722   -0.8175    1.6946 H       1  UNL1        0.0314
     40 H          -3.3740   -1.8093    0.3050 H       1  UNL1        0.0314
     41 H          -5.4465   -1.5104    1.5644 H       1  UNL1        0.0268
     42 H          -5.5531   -0.6640    0.0084 H       1  UNL1        0.0268
     43 H          -5.3796    0.4168    2.7243 H       1  UNL1        0.0269
     44 H          -6.4330    0.8429    1.3527 H       1  UNL1        0.0269
     45 H          -5.1855    2.5664    1.0838 H       1  UNL1        0.0315
     46 H          -3.9319    1.8891    2.1678 H       1  UNL1        0.0315
     47 H           0.7916   -0.3177   -1.7161 H       1  UNL1        0.0626
     48 H           3.8102   -0.3480    1.4849 H       1  UNL1        0.0631
@<TRIPOS>BOND
     1     1     2    2
     2     2     3   am
     3     2     5    1
     4     3     4    1
     5     5     6   ar
     6     5    28   ar
     7     6     7   ar
     8     7     8   ar
     9     8     9   ar
    10     9    10    1
    11     9    28   ar
    12    10    11   ar
    13    10    27   ar
    14    11    12   ar
    15    12    13   ar
    16    13    14   ar
    17    14    15    1
    18    14    27   ar
    19    15    16    1
    20    16    17   ar
    21    16    22   ar
    22    17    18   ar
    23    18    19   ar
    24    19    20    2
    25    19    21   ar
    26    21    22   ar
    27    21    26    1
    28    22    23    1
    29    23    24    1
    30    24    25    1
    31    25    26    1
    32     3    29    1
    33     6    30    1
    34     7    31    1
    35     8    32    1
    36    11    33    1
    37    12    34    1
    38    13    35    1
    39    15    36    1
    40    15    37    1
    41    18    38    1
    42    23    39    1
    43    23    40    1
    44    24    41    1
    45    24    42    1
    46    25    43    1
    47    25    44    1
    48    26    45    1
    49    26    46    1
    50    27    47    1
    51    28    48    1
