@<TRIPOS>MOLECULE
../data/bude_mols_rdkit_confs2/molecule_55.pdb
 29 31 0 0 0
SMALL
GASTEIGER

@<TRIPOS>ATOM
      1  N1        -4.0040   -2.1120   -0.7570 N.pl3   1  UNL1       -0.3430
      2  C1        -3.3420   -0.9860   -0.2000 C.ar    1  UNL1        0.1221
      3  C2        -1.9770   -0.9020   -0.2970 C.ar    1  UNL1        0.0220
      4  C3        -1.3580    0.2100    0.2560 C.ar    1  UNL1        0.1549
      5  O1         0.0080    0.3890    0.2110 O.3     1  UNL1       -0.4850
      6  C4         0.7900   -0.6030   -0.4240 C.3     1  UNL1        0.1148
      7  C5         2.2380   -0.2610   -0.3860 C.ar    1  UNL1       -0.0090
      8  C6         2.7840    0.4840   -1.4280 C.ar    1  UNL1       -0.0553
      9  C7         4.1220    0.8040   -1.4020 C.ar    1  UNL1       -0.0600
     10  C8         4.9430    0.4070   -0.3670 C.ar    1  UNL1       -0.0434
     11  C9         4.3860   -0.3380    0.6700 C.ar    1  UNL1        0.0413
     12 CL1         5.4510   -0.8370    1.9860 Cl      1  UNL1       -0.0835
     13  C10        3.0470   -0.6620    0.6500 C.ar    1  UNL1       -0.0370
     14  C11       -2.1500    1.1780    0.8790 C.ar    1  UNL1        0.1728
     15  N2        -1.8570    2.3370    1.4930 N.ar    1  UNL1       -0.1243
     16  N3        -2.9840    2.8900    1.9190 N.ar    1  UNL1       -0.0659
     17  N4        -4.0190    2.1320    1.6070 N.ar    1  UNL1       -0.2402
     18  C12       -3.5220    1.0600    0.9580 C.ar    1  UNL1        0.1813
     19  N5        -4.0740   -0.0390    0.4040 N.ar    1  UNL1       -0.2116
     20 H          -3.4833   -2.8176   -1.2044 H       1  UNL1        0.1437
     21 H          -4.9837   -2.1871   -0.6957 H       1  UNL1        0.1437
     22 H          -1.4287   -1.6404   -0.7652 H       1  UNL1        0.0689
     23 H           0.4798   -0.6904   -1.4443 H       1  UNL1        0.0748
     24 H           0.6488   -1.5270    0.0967 H       1  UNL1        0.0748
     25 H           2.1901    0.7936   -2.2132 H       1  UNL1        0.0621
     26 H           4.5218    1.3555   -2.1772 H       1  UNL1        0.0618
     27 H           5.9446    0.6556   -0.3611 H       1  UNL1        0.0632
     28 H           2.6457   -1.2138    1.4243 H       1  UNL1        0.0636
     29 H          -4.9655    2.3135    1.8083 H       1  UNL1        0.1923
@<TRIPOS>BOND
     1     1     2    1
     2     2     3   ar
     3     2    19   ar
     4     3     4   ar
     5     4     5    1
     6     4    14   ar
     7     5     6    1
     8     6     7    1
     9     7     8   ar
    10     7    13   ar
    11     8     9   ar
    12     9    10   ar
    13    10    11   ar
    14    11    12    1
    15    11    13   ar
    16    14    15   ar
    17    14    18   ar
    18    15    16   ar
    19    16    17   ar
    20    17    18   ar
    21    18    19   ar
    22     1    20    1
    23     1    21    1
    24     3    22    1
    25     6    23    1
    26     6    24    1
    27     8    25    1
    28     9    26    1
    29    10    27    1
    30    13    28    1
    31    17    29    1
@<TRIPOS>MOLECULE
../data/bude_mols_rdkit_confs2/molecule_55.pdb
 29 31 0 0 0
SMALL
GASTEIGER

@<TRIPOS>ATOM
      1  N1        -3.5460   -1.7020    0.6230 N.pl3   1  UNL1       -0.3430
      2  C1        -3.1240   -0.5070    0.0010 C.ar    1  UNL1        0.1221
      3  C2        -1.7530   -0.2600   -0.0520 C.ar    1  UNL1        0.0220
      4  C3        -1.2590    0.8750   -0.6370 C.ar    1  UNL1        0.1549
      5  O1         0.0890    1.1970   -0.7320 O.3     1  UNL1       -0.4850
      6  C4         1.0600    0.5220   -0.3090 C.3     1  UNL1        0.1148
      7  C5         2.1620   -0.2440    0.1700 C.ar    1  UNL1       -0.0090
      8  C6         1.9700   -1.6420    0.3270 C.ar    1  UNL1       -0.0553
      9  C7         2.9960   -2.4120    0.7990 C.ar    1  UNL1       -0.0600
     10  C8         4.2100   -1.8550    1.1230 C.ar    1  UNL1       -0.0434
     11  C9         4.4440   -0.5120    0.9870 C.ar    1  UNL1        0.0413
     12 CL1         6.0180    0.1530    1.4120 Cl      1  UNL1       -0.0835
     13  C10        3.4040    0.2400    0.5140 C.ar    1  UNL1       -0.0370
     14  C11       -2.1890    1.7610   -1.1710 C.ar    1  UNL1        0.1728
     15  N2        -1.9360    2.9210   -1.7940 N.ar    1  UNL1       -0.1243
     16  N3        -3.1040    3.4230   -2.1400 N.ar    1  UNL1       -0.0659
     17  N4        -4.0870    2.5980   -1.7450 N.ar    1  UNL1       -0.2402
     18  C12       -3.5360    1.5420   -1.1320 C.ar    1  UNL1        0.1813
     19  N5        -3.9540    0.4120   -0.5450 N.ar    1  UNL1       -0.2116
     20 H          -2.8807   -2.3232    0.9982 H       1  UNL1        0.1437
     21 H          -4.5056   -1.9142    0.6816 H       1  UNL1        0.1437
     22 H          -1.0986   -0.9451    0.3571 H       1  UNL1        0.0689
     23 H           0.3856   -0.1126    0.2271 H       1  UNL1        0.0748
     24 H           1.7344    1.1569   -0.8446 H       1  UNL1        0.0748
     25 H           1.0636   -2.0731    0.0868 H       1  UNL1        0.0621
     26 H           2.8568   -3.4281    0.9139 H       1  UNL1        0.0618
     27 H           4.9642   -2.4637    1.4776 H       1  UNL1        0.0632
     28 H           3.5635    1.2539    0.4061 H       1  UNL1        0.0636
     29 H          -5.0507    2.7446   -1.8827 H       1  UNL1        0.1923
@<TRIPOS>BOND
     1     1     2    1
     2     2     3   ar
     3     2    19   ar
     4     3     4   ar
     5     4     5    1
     6     4    14   ar
     7     5     6    1
     8     6     7    1
     9     7     8   ar
    10     7    13   ar
    11     8     9   ar
    12     9    10   ar
    13    10    11   ar
    14    11    12    1
    15    11    13   ar
    16    14    15   ar
    17    14    18   ar
    18    15    16   ar
    19    16    17   ar
    20    17    18   ar
    21    18    19   ar
    22     1    20    1
    23     1    21    1
    24     3    22    1
    25     6    23    1
    26     6    24    1
    27     8    25    1
    28     9    26    1
    29    10    27    1
    30    13    28    1
    31    17    29    1
@<TRIPOS>MOLECULE
../data/bude_mols_rdkit_confs2/molecule_55.pdb
 29 31 0 0 0
SMALL
GASTEIGER

@<TRIPOS>ATOM
      1  N1        -4.1250   -2.1520    0.0940 N.pl3   1  UNL1       -0.3430
      2  C1        -3.4350   -0.8920    0.0600 C.ar    1  UNL1        0.1221
      3  C2        -2.0560   -0.8340    0.0760 C.ar    1  UNL1        0.0220
      4  C3        -1.3590    0.3500    0.0450 C.ar    1  UNL1        0.1549
      5  O1         0.0280    0.3990    0.0620 O.3     1  UNL1       -0.4850
      6  C4         0.7870   -0.8040    0.1130 C.3     1  UNL1        0.1148
      7  C5         2.2320   -0.4980    0.1220 C.ar    1  UNL1       -0.0090
      8  C6         2.9320   -0.3080    1.2930 C.ar    1  UNL1       -0.0553
      9  C7         4.2800   -0.0230    1.2970 C.ar    1  UNL1       -0.0600
     10  C8         4.9390    0.0730    0.0970 C.ar    1  UNL1       -0.0434
     11  C9         4.2720   -0.1120   -1.1080 C.ar    1  UNL1        0.0413
     12 CL1         5.1050    0.0080   -2.6460 Cl      1  UNL1       -0.0835
     13  C10        2.9260   -0.3950   -1.0620 C.ar    1  UNL1       -0.0370
     14  C11       -2.0680    1.5330   -0.0050 C.ar    1  UNL1        0.1728
     15  N2        -1.7410    2.8380   -0.0460 N.ar    1  UNL1       -0.1243
     16  N3        -2.8410    3.5810   -0.0860 N.ar    1  UNL1       -0.0659
     17  N4        -3.8620    2.7460   -0.0710 N.ar    1  UNL1       -0.2402
     18  C12       -3.4600    1.4660   -0.0220 C.ar    1  UNL1        0.1813
     19  N5        -4.0950    0.2790    0.0100 N.ar    1  UNL1       -0.2116
     20 H          -3.6136   -2.9925    0.1304 H       1  UNL1        0.1437
     21 H          -5.1091   -2.1748    0.0809 H       1  UNL1        0.1437
     22 H          -1.5253   -1.7183    0.1128 H       1  UNL1        0.0689
     23 H           0.5582   -1.4024   -0.7440 H       1  UNL1        0.0748
     24 H           0.5380   -1.3352    1.0078 H       1  UNL1        0.0748
     25 H           2.4325   -0.3812    2.1931 H       1  UNL1        0.0621
     26 H           4.7850    0.1158    2.1862 H       1  UNL1        0.0618
     27 H           5.9486    0.2865    0.0894 H       1  UNL1        0.0632
     28 H           2.4177   -0.5353   -1.9491 H       1  UNL1        0.0636
     29 H          -4.8051    3.0275   -0.0931 H       1  UNL1        0.1923
@<TRIPOS>BOND
     1     1     2    1
     2     2     3   ar
     3     2    19   ar
     4     3     4   ar
     5     4     5    1
     6     4    14   ar
     7     5     6    1
     8     6     7    1
     9     7     8   ar
    10     7    13   ar
    11     8     9   ar
    12     9    10   ar
    13    10    11   ar
    14    11    12    1
    15    11    13   ar
    16    14    15   ar
    17    14    18   ar
    18    15    16   ar
    19    16    17   ar
    20    17    18   ar
    21    18    19   ar
    22     1    20    1
    23     1    21    1
    24     3    22    1
    25     6    23    1
    26     6    24    1
    27     8    25    1
    28     9    26    1
    29    10    27    1
    30    13    28    1
    31    17    29    1
@<TRIPOS>MOLECULE
../data/bude_mols_rdkit_confs2/molecule_55.pdb
 29 31 0 0 0
SMALL
GASTEIGER

@<TRIPOS>ATOM
      1  N1        -1.9200    2.4180   -0.9000 N.pl3   1  UNL1       -0.3430
      2  C1        -1.9880    1.0740   -0.4170 C.ar    1  UNL1        0.1221
      3  C2        -1.0190    0.5760    0.4310 C.ar    1  UNL1        0.0220
      4  C3        -1.0720   -0.7170    0.9030 C.ar    1  UNL1        0.1549
      5  O1        -0.1110   -1.2230    1.7500 O.3     1  UNL1       -0.4850
      6  C4         1.0100   -0.5070    2.2190 C.3     1  UNL1        0.1148
      7  C5         1.8150   -0.1160    1.0110 C.ar    1  UNL1       -0.0090
      8  C6         1.6370   -0.7510   -0.1970 C.ar    1  UNL1       -0.0553
      9  C7         2.3920   -0.3690   -1.2990 C.ar    1  UNL1       -0.0600
     10  C8         3.3300    0.6370   -1.2350 C.ar    1  UNL1       -0.0434
     11  C9         3.4900    1.2570   -0.0140 C.ar    1  UNL1        0.0413
     12 CL1         4.6680    2.5450    0.1330 Cl      1  UNL1       -0.0835
     13  C10        2.7530    0.8950    1.0910 C.ar    1  UNL1       -0.0370
     14  C11       -2.1270   -1.4930    0.4980 C.ar    1  UNL1        0.1728
     15  N2        -2.4990   -2.7770    0.7530 N.ar    1  UNL1       -0.1243
     16  N3        -3.6220   -3.0310    0.0960 N.ar    1  UNL1       -0.0659
     17  N4        -4.0110   -1.9610   -0.5860 N.ar    1  UNL1       -0.2402
     18  C12       -3.0990   -1.0110   -0.3450 C.ar    1  UNL1        0.1813
     19  N5        -3.0010    0.2530   -0.7760 N.ar    1  UNL1       -0.2116
     20 H          -1.1752    3.0017   -0.6282 H       1  UNL1        0.1437
     21 H          -2.6180    2.7598   -1.5044 H       1  UNL1        0.1437
     22 H          -0.2375    1.1861    0.7177 H       1  UNL1        0.0689
     23 H           1.5959   -1.1243    2.8676 H       1  UNL1        0.0748
     24 H           0.7081    0.3565    2.7740 H       1  UNL1        0.0748
     25 H           0.9434   -1.5102   -0.2842 H       1  UNL1        0.0621
     26 H           2.2447   -0.8562   -2.1968 H       1  UNL1        0.0618
     27 H           3.8855    0.9131   -2.0598 H       1  UNL1        0.0632
     28 H           2.9027    1.3835    1.9876 H       1  UNL1        0.0636
     29 H          -4.8103   -1.8817   -1.1553 H       1  UNL1        0.1923
@<TRIPOS>BOND
     1     1     2    1
     2     2     3   ar
     3     2    19   ar
     4     3     4   ar
     5     4     5    1
     6     4    14   ar
     7     5     6    1
     8     6     7    1
     9     7     8   ar
    10     7    13   ar
    11     8     9   ar
    12     9    10   ar
    13    10    11   ar
    14    11    12    1
    15    11    13   ar
    16    14    15   ar
    17    14    18   ar
    18    15    16   ar
    19    16    17   ar
    20    17    18   ar
    21    18    19   ar
    22     1    20    1
    23     1    21    1
    24     3    22    1
    25     6    23    1
    26     6    24    1
    27     8    25    1
    28     9    26    1
    29    10    27    1
    30    13    28    1
    31    17    29    1
@<TRIPOS>MOLECULE
../data/bude_mols_rdkit_confs2/molecule_55.pdb
 29 31 0 0 0
SMALL
GASTEIGER

@<TRIPOS>ATOM
      1  N1        -3.2510    2.4630    0.5510 N.pl3   1  UNL1       -0.3430
      2  C1        -2.9800    1.0760    0.4400 C.ar    1  UNL1        0.1221
      3  C2        -1.6690    0.6220    0.2850 C.ar    1  UNL1        0.0220
      4  C3        -1.4240   -0.7090    0.1750 C.ar    1  UNL1        0.1549
      5  O1        -0.1900   -1.3020    0.0150 O.3     1  UNL1       -0.4850
      6  C4         0.9500   -0.7550   -0.0580 C.3     1  UNL1        0.1148
      7  C5         2.2210   -0.1460   -0.1400 C.ar    1  UNL1       -0.0090
      8  C6         3.3730   -0.7360   -0.6060 C.ar    1  UNL1       -0.0553
      9  C7         4.6050   -0.1160   -0.6600 C.ar    1  UNL1       -0.0600
     10  C8         4.6660    1.1790   -0.2130 C.ar    1  UNL1       -0.0434
     11  C9         3.5650    1.8210    0.2600 C.ar    1  UNL1        0.0413
     12 CL1         3.7230    3.4860    0.8180 Cl      1  UNL1       -0.0835
     13  C10        2.3570    1.2020    0.3080 C.ar    1  UNL1       -0.0370
     14  C11       -2.5090   -1.5820    0.2230 C.ar    1  UNL1        0.1728
     15  N2        -2.5710   -2.9240    0.1400 N.ar    1  UNL1       -0.1243
     16  N3        -3.8350   -3.2440    0.2400 N.ar    1  UNL1       -0.0659
     17  N4        -4.5950   -2.1900    0.3810 N.ar    1  UNL1       -0.2402
     18  C12       -3.7900   -1.1190    0.3760 C.ar    1  UNL1        0.1813
     19  N5        -4.0080    0.2030    0.4820 N.ar    1  UNL1       -0.2116
     20 H          -2.5120    3.1128    0.5222 H       1  UNL1        0.1437
     21 H          -4.1782    2.7765    0.6569 H       1  UNL1        0.1437
     22 H          -0.8882    1.2961    0.2541 H       1  UNL1        0.0689
     23 H           1.0380   -0.7957    1.0076 H       1  UNL1        0.0748
     24 H           0.8617   -0.7138   -1.1236 H       1  UNL1        0.0748
     25 H           3.3118   -1.7110   -0.9387 H       1  UNL1        0.0621
     26 H           5.4404   -0.6037   -1.0196 H       1  UNL1        0.0618
     27 H           5.5691    1.6780   -0.2362 H       1  UNL1        0.0632
     28 H           1.5340    1.7087    0.6700 H       1  UNL1        0.0636
     29 H          -5.5751   -2.1842    0.4735 H       1  UNL1        0.1923
@<TRIPOS>BOND
     1     1     2    1
     2     2     3   ar
     3     2    19   ar
     4     3     4   ar
     5     4     5    1
     6     4    14   ar
     7     5     6    1
     8     6     7    1
     9     7     8   ar
    10     7    13   ar
    11     8     9   ar
    12     9    10   ar
    13    10    11   ar
    14    11    12    1
    15    11    13   ar
    16    14    15   ar
    17    14    18   ar
    18    15    16   ar
    19    16    17   ar
    20    17    18   ar
    21    18    19   ar
    22     1    20    1
    23     1    21    1
    24     3    22    1
    25     6    23    1
    26     6    24    1
    27     8    25    1
    28     9    26    1
    29    10    27    1
    30    13    28    1
    31    17    29    1
@<TRIPOS>MOLECULE
../data/bude_mols_rdkit_confs2/molecule_55.pdb
 29 31 0 0 0
SMALL
GASTEIGER

@<TRIPOS>ATOM
      1  N1        -1.8340    2.7400    0.6330 N.pl3   1  UNL1       -0.3430
      2  C1        -1.9920    1.3500    0.3440 C.ar    1  UNL1        0.1221
      3  C2        -1.0320    0.6490   -0.3750 C.ar    1  UNL1        0.0220
      4  C3        -1.1710   -0.6900   -0.6610 C.ar    1  UNL1        0.1549
      5  O1        -0.2240   -1.3780   -1.3690 O.3     1  UNL1       -0.4850
      6  C4         0.9710   -0.9000   -1.8940 C.3     1  UNL1        0.1148
      7  C5         1.8450   -0.3900   -0.8070 C.ar    1  UNL1       -0.0090
      8  C6         2.9570    0.4030   -1.1160 C.ar    1  UNL1       -0.0553
      9  C7         3.8040    0.8970   -0.1470 C.ar    1  UNL1       -0.0600
     10  C8         3.5740    0.6150    1.1830 C.ar    1  UNL1       -0.0434
     11  C9         2.4880   -0.1640    1.5250 C.ar    1  UNL1        0.0413
     12 CL1         2.1130   -0.5760    3.1870 Cl      1  UNL1       -0.0835
     13  C10        1.6450   -0.6520    0.5330 C.ar    1  UNL1       -0.0370
     14  C11       -2.2990   -1.3760   -0.2250 C.ar    1  UNL1        0.1728
     15  N2        -2.7290   -2.6460   -0.3310 N.ar    1  UNL1       -0.1243
     16  N3        -3.8890   -2.7360    0.2840 N.ar    1  UNL1       -0.0659
     17  N4        -4.2050   -1.5530    0.7780 N.ar    1  UNL1       -0.2402
     18  C12       -3.2310   -0.6530    0.4850 C.ar    1  UNL1        0.1813
     19  N5        -3.0680    0.6540    0.7490 N.ar    1  UNL1       -0.2116
     20 H          -1.0329    3.2197    0.3210 H       1  UNL1        0.1437
     21 H          -2.5262    3.2183    1.1441 H       1  UNL1        0.1437
     22 H          -0.1901    1.1468   -0.7042 H       1  UNL1        0.0689
     23 H           0.7623   -0.1063   -2.5806 H       1  UNL1        0.0748
     24 H           1.4735   -1.6988   -2.3983 H       1  UNL1        0.0748
     25 H           3.1495    0.6257   -2.1051 H       1  UNL1        0.0621
     26 H           4.6120    1.4792   -0.4176 H       1  UNL1        0.0618
     27 H           4.2054    0.9816    1.9124 H       1  UNL1        0.0632
     28 H           0.8381   -1.2329    0.8096 H       1  UNL1        0.0636
     29 H          -5.0255   -1.3529    1.2840 H       1  UNL1        0.1923
@<TRIPOS>BOND
     1     1     2    1
     2     2     3   ar
     3     2    19   ar
     4     3     4   ar
     5     4     5    1
     6     4    14   ar
     7     5     6    1
     8     6     7    1
     9     7     8   ar
    10     7    13   ar
    11     8     9   ar
    12     9    10   ar
    13    10    11   ar
    14    11    12    1
    15    11    13   ar
    16    14    15   ar
    17    14    18   ar
    18    15    16   ar
    19    16    17   ar
    20    17    18   ar
    21    18    19   ar
    22     1    20    1
    23     1    21    1
    24     3    22    1
    25     6    23    1
    26     6    24    1
    27     8    25    1
    28     9    26    1
    29    10    27    1
    30    13    28    1
    31    17    29    1
@<TRIPOS>MOLECULE
../data/bude_mols_rdkit_confs2/molecule_55.pdb
 29 31 0 0 0
SMALL
GASTEIGER

@<TRIPOS>ATOM
      1  N1        -4.1560    1.9620   -0.0370 N.pl3   1  UNL1       -0.3430
      2  C1        -3.4310    0.7260   -0.0090 C.ar    1  UNL1        0.1221
      3  C2        -2.0390    0.7170   -0.0140 C.ar    1  UNL1        0.0220
      4  C3        -1.3330   -0.4670    0.0130 C.ar    1  UNL1        0.1549
      5  O1         0.0530   -0.5040    0.0090 O.3     1  UNL1       -0.4850
      6  C4         0.7380    0.7320   -0.0230 C.3     1  UNL1        0.1148
      7  C5         2.2020    0.5670   -0.0240 C.ar    1  UNL1       -0.0090
      8  C6         2.7310   -0.7050    0.0060 C.ar    1  UNL1       -0.0553
      9  C7         4.1150   -0.8930    0.0060 C.ar    1  UNL1       -0.0600
     10  C8         4.9820    0.1770   -0.0230 C.ar    1  UNL1       -0.0434
     11  C9         4.4580    1.4420   -0.0520 C.ar    1  UNL1        0.0413
     12 CL1         5.5460    2.8160   -0.0890 Cl      1  UNL1       -0.0835
     13  C10        3.0820    1.6240   -0.0520 C.ar    1  UNL1       -0.0370
     14  C11       -2.0640   -1.6350    0.0440 C.ar    1  UNL1        0.1728
     15  N2        -1.6600   -2.9050    0.0730 N.ar    1  UNL1       -0.1243
     16  N3        -2.7320   -3.6700    0.0950 N.ar    1  UNL1       -0.0659
     17  N4        -3.8360   -2.9370    0.0810 N.ar    1  UNL1       -0.2402
     18  C12       -3.4550   -1.6430    0.0480 C.ar    1  UNL1        0.1813
     19  N5        -4.0780   -0.4530    0.0210 N.ar    1  UNL1       -0.2116
     20 H          -3.6695    2.8176   -0.0588 H       1  UNL1        0.1437
     21 H          -5.1405    1.9554   -0.0344 H       1  UNL1        0.1437
     22 H          -1.5264    1.6124   -0.0383 H       1  UNL1        0.0689
     23 H           0.4577    1.3018    0.8382 H       1  UNL1        0.0748
     24 H           0.4668    1.2301   -0.9303 H       1  UNL1        0.0748
     25 H           2.1016   -1.5226    0.0286 H       1  UNL1        0.0621
     26 H           4.4954   -1.8521    0.0282 H       1  UNL1        0.0618
     27 H           6.0033    0.0288   -0.0229 H       1  UNL1        0.0632
     28 H           2.7063    2.5849   -0.0737 H       1  UNL1        0.0636
     29 H          -4.7611   -3.2736    0.0925 H       1  UNL1        0.1923
@<TRIPOS>BOND
     1     1     2    1
     2     2     3   ar
     3     2    19   ar
     4     3     4   ar
     5     4     5    1
     6     4    14   ar
     7     5     6    1
     8     6     7    1
     9     7     8   ar
    10     7    13   ar
    11     8     9   ar
    12     9    10   ar
    13    10    11   ar
    14    11    12    1
    15    11    13   ar
    16    14    15   ar
    17    14    18   ar
    18    15    16   ar
    19    16    17   ar
    20    17    18   ar
    21    18    19   ar
    22     1    20    1
    23     1    21    1
    24     3    22    1
    25     6    23    1
    26     6    24    1
    27     8    25    1
    28     9    26    1
    29    10    27    1
    30    13    28    1
    31    17    29    1
@<TRIPOS>MOLECULE
../data/bude_mols_rdkit_confs2/molecule_55.pdb
 29 31 0 0 0
SMALL
GASTEIGER

@<TRIPOS>ATOM
      1  N1         4.3060    0.6140   -1.5910 N.pl3   1  UNL1       -0.3430
      2  C1         3.3380   -0.2980   -1.1410 C.ar    1  UNL1        0.1221
      3  C2         2.1080    0.1990   -0.7660 C.ar    1  UNL1        0.0220
      4  C3         1.1640   -0.6950   -0.3270 C.ar    1  UNL1        0.1549
      5  O1        -0.1150   -0.2760    0.0750 O.3     1  UNL1       -0.4850
      6  C4        -0.4610    1.0760    0.0370 C.3     1  UNL1        0.1148
      7  C5        -1.8500    1.2440    0.5070 C.ar    1  UNL1       -0.0090
      8  C6        -2.4090    2.5120    0.5550 C.ar    1  UNL1       -0.0553
      9  C7        -3.7110    2.5990    1.0040 C.ar    1  UNL1       -0.0600
     10  C8        -4.4490    1.5020    1.3940 C.ar    1  UNL1       -0.0434
     11  C9        -3.8600    0.2540    1.3340 C.ar    1  UNL1        0.0413
     12 CL1        -4.7750   -1.1630    1.8250 Cl      1  UNL1       -0.0835
     13  C10       -2.5570    0.1280    0.8890 C.ar    1  UNL1       -0.0370
     14  C11        1.4220   -2.0430   -0.2580 C.ar    1  UNL1        0.1728
     15  N2         0.6680   -3.1080    0.1340 N.ar    1  UNL1       -0.1243
     16  N3         1.4320   -4.1520   -0.0130 N.ar    1  UNL1       -0.0659
     17  N4         2.6260   -3.8280   -0.4720 N.ar    1  UNL1       -0.2402
     18  C12        2.6700   -2.4770   -0.6470 C.ar    1  UNL1        0.1813
     19  N5         3.6110   -1.6260   -1.0800 N.ar    1  UNL1       -0.2116
     20 H           4.0961    1.5750   -1.6308 H       1  UNL1        0.1437
     21 H           5.1947    0.2925   -1.8668 H       1  UNL1        0.1437
     22 H           1.9040    1.2095   -0.8138 H       1  UNL1        0.0689
     23 H          -0.3785    1.4368   -0.9670 H       1  UNL1        0.0748
     24 H           0.1988    1.6300    0.6716 H       1  UNL1        0.0748
     25 H          -1.8777    3.3492    0.2691 H       1  UNL1        0.0621
     26 H          -4.1535    3.5302    1.0500 H       1  UNL1        0.0618
     27 H          -5.4208    1.6108    1.7238 H       1  UNL1        0.0632
     28 H          -2.1150   -0.8035    0.8435 H       1  UNL1        0.0636
     29 H           3.3611   -4.4562   -0.6569 H       1  UNL1        0.1923
@<TRIPOS>BOND
     1     1     2    1
     2     2     3   ar
     3     2    19   ar
     4     3     4   ar
     5     4     5    1
     6     4    14   ar
     7     5     6    1
     8     6     7    1
     9     7     8   ar
    10     7    13   ar
    11     8     9   ar
    12     9    10   ar
    13    10    11   ar
    14    11    12    1
    15    11    13   ar
    16    14    15   ar
    17    14    18   ar
    18    15    16   ar
    19    16    17   ar
    20    17    18   ar
    21    18    19   ar
    22     1    20    1
    23     1    21    1
    24     3    22    1
    25     6    23    1
    26     6    24    1
    27     8    25    1
    28     9    26    1
    29    10    27    1
    30    13    28    1
    31    17    29    1
@<TRIPOS>MOLECULE
../data/bude_mols_rdkit_confs2/molecule_55.pdb
 29 31 0 0 0
SMALL
GASTEIGER

@<TRIPOS>ATOM
      1  N1        -1.7170    2.3620   -1.6030 N.pl3   1  UNL1       -0.3430
      2  C1        -1.9660    1.1820   -0.8210 C.ar    1  UNL1        0.1221
      3  C2        -0.9870    0.1890   -0.7520 C.ar    1  UNL1        0.0220
      4  C3        -1.1670   -0.9650   -0.0200 C.ar    1  UNL1        0.1549
      5  O1        -0.2320   -1.9830    0.0840 O.3     1  UNL1       -0.4850
      6  C4         1.0270   -1.9530   -0.5480 C.3     1  UNL1        0.1148
      7  C5         1.8790   -0.8220   -0.1090 C.ar    1  UNL1       -0.0090
      8  C6         1.5550   -0.1080    1.0180 C.ar    1  UNL1       -0.0553
      9  C7         2.3740    0.9360    1.3900 C.ar    1  UNL1       -0.0600
     10  C8         3.4980    1.2830    0.6710 C.ar    1  UNL1       -0.0434
     11  C9         3.7980    0.5550   -0.4480 C.ar    1  UNL1        0.0413
     12 CL1         5.2270    0.9500   -1.4130 Cl      1  UNL1       -0.0835
     13  C10        2.9970   -0.4810   -0.8280 C.ar    1  UNL1       -0.0370
     14  C11       -2.3850   -1.0740    0.6450 C.ar    1  UNL1        0.1728
     15  N2        -2.8760   -2.0520    1.4340 N.ar    1  UNL1       -0.1243
     16  N3        -4.0940   -1.6930    1.8360 N.ar    1  UNL1       -0.0659
     17  N4        -4.4010   -0.5110    1.3300 N.ar    1  UNL1       -0.2402
     18  C12       -3.3550   -0.1070    0.5860 C.ar    1  UNL1        0.1813
     19  N5        -3.1200    1.0040   -0.1500 N.ar    1  UNL1       -0.2116
     20 H          -0.8633    2.4636   -2.0826 H       1  UNL1        0.1437
     21 H          -2.4002    3.0686   -1.6590 H       1  UNL1        0.1437
     22 H          -0.1015    0.3231   -1.2647 H       1  UNL1        0.0689
     23 H           0.8746   -1.8729   -1.6041 H       1  UNL1        0.0748
     24 H           1.5366   -2.8550   -0.2803 H       1  UNL1        0.0748
     25 H           0.7185   -0.3473    1.5730 H       1  UNL1        0.0621
     26 H           2.1377    1.4770    2.2364 H       1  UNL1        0.0618
     27 H           4.0962    2.0696    0.9684 H       1  UNL1        0.0632
     28 H           3.2367   -1.0203   -1.6746 H       1  UNL1        0.0636
     29 H          -5.2407   -0.0170    1.4715 H       1  UNL1        0.1923
@<TRIPOS>BOND
     1     1     2    1
     2     2     3   ar
     3     2    19   ar
     4     3     4   ar
     5     4     5    1
     6     4    14   ar
     7     5     6    1
     8     6     7    1
     9     7     8   ar
    10     7    13   ar
    11     8     9   ar
    12     9    10   ar
    13    10    11   ar
    14    11    12    1
    15    11    13   ar
    16    14    15   ar
    17    14    18   ar
    18    15    16   ar
    19    16    17   ar
    20    17    18   ar
    21    18    19   ar
    22     1    20    1
    23     1    21    1
    24     3    22    1
    25     6    23    1
    26     6    24    1
    27     8    25    1
    28     9    26    1
    29    10    27    1
    30    13    28    1
    31    17    29    1
@<TRIPOS>MOLECULE
../data/bude_mols_rdkit_confs2/molecule_55.pdb
 29 31 0 0 0
SMALL
GASTEIGER

@<TRIPOS>ATOM
      1  N1         3.0010    1.1250   -3.6710 N.pl3   1  UNL1       -0.3430
      2  C1         2.5060    1.4710   -2.3880 C.ar    1  UNL1        0.1221
      3  C2         1.5640    0.7220   -1.7580 C.ar    1  UNL1        0.0220
      4  C3         1.0520    1.0180   -0.4560 C.ar    1  UNL1        0.1549
      5  O1         0.1780    0.2870    0.0900 O.3     1  UNL1       -0.4850
      6  C4        -0.6940   -0.5510    0.4900 C.3     1  UNL1        0.1148
      7  C5        -1.6360   -1.4040    0.9890 C.ar    1  UNL1       -0.0090
      8  C6        -1.5330   -1.7330    2.3760 C.ar    1  UNL1       -0.0553
      9  C7        -2.4120   -2.5940    2.9610 C.ar    1  UNL1       -0.0600
     10  C8        -3.4140   -3.1570    2.2080 C.ar    1  UNL1       -0.0434
     11  C9        -3.5620   -2.8710    0.8530 C.ar    1  UNL1        0.0413
     12 CL1        -4.8860   -3.6340   -0.0360 Cl      1  UNL1       -0.0835
     13  C10       -2.6900   -2.0170    0.2780 C.ar    1  UNL1       -0.0370
     14  C11        1.5930    2.1640    0.1550 C.ar    1  UNL1        0.1728
     15  N2         1.3690    2.7330    1.3370 N.ar    1  UNL1       -0.1243
     16  N3         2.1360    3.7940    1.4460 N.ar    1  UNL1       -0.0659
     17  N4         2.8660    3.9240    0.3330 N.ar    1  UNL1       -0.2402
     18  C12        2.5380    2.8950   -0.5060 C.ar    1  UNL1        0.1813
     19  N5         2.9530    2.5380   -1.7220 N.ar    1  UNL1       -0.2116
     20 H           2.6505    0.3313   -4.1363 H       1  UNL1        0.1437
     21 H           3.6952    1.6784   -4.0965 H       1  UNL1        0.1437
     22 H           1.1965   -0.1089   -2.2474 H       1  UNL1        0.0689
     23 H          -0.0098   -1.3609    0.3452 H       1  UNL1        0.0748
     24 H          -1.3963    0.2509    0.5829 H       1  UNL1        0.0748
     25 H          -0.7809   -1.3117    2.9434 H       1  UNL1        0.0621
     26 H          -2.3258   -2.8220    3.9638 H       1  UNL1        0.0618
     27 H          -4.0747   -3.8093    2.6586 H       1  UNL1        0.0632
     28 H          -2.7984   -1.8026   -0.7256 H       1  UNL1        0.0636
     29 H           3.5228    4.6342    0.1501 H       1  UNL1        0.1923
@<TRIPOS>BOND
     1     1     2    1
     2     2     3   ar
     3     2    19   ar
     4     3     4   ar
     5     4     5    1
     6     4    14   ar
     7     5     6    1
     8     6     7    1
     9     7     8   ar
    10     7    13   ar
    11     8     9   ar
    12     9    10   ar
    13    10    11   ar
    14    11    12    1
    15    11    13   ar
    16    14    15   ar
    17    14    18   ar
    18    15    16   ar
    19    16    17   ar
    20    17    18   ar
    21    18    19   ar
    22     1    20    1
    23     1    21    1
    24     3    22    1
    25     6    23    1
    26     6    24    1
    27     8    25    1
    28     9    26    1
    29    10    27    1
    30    13    28    1
    31    17    29    1
